3100_01
ibFlexX   03112612523D 1   1.00000     0.00000     0
FlexX 6.4.1 ibab
 41 42  0  0  0  0            999 V2000
   22.4448   23.1949   53.7348 O   0  0  0  0  0  0  0  0  0  0  0  0
   20.2711   24.5881   54.9156 N   0  3  0  0  0  0  0  0  0  0  0  0
   23.1274   22.7027   52.5896 C   0  0  0  0  0  0  0  0  0  0  0  0
   23.2925   23.8078   51.5671 C   0  0  0  0  0  0  0  0  0  0  0  0
   24.4402   22.0395   52.9590 C   0  0  0  0  0  0  0  0  0  0  0  0
   21.1927   22.5463   53.9145 C   0  0  0  0  0  0  0  0  0  0  0  0
   20.0893   23.5908   53.8614 C   0  0  0  0  0  0  0  0  0  0  0  0
   24.4838   23.9174   50.8574 C   0  0  0  0  0  0  0  0  0  0  0  0
   24.8300   20.8733   52.3086 C   0  0  0  0  0  0  0  0  0  0  0  0
   22.2466   24.6996   51.3519 C   0  0  0  0  0  0  0  0  0  0  0  0
   25.2381   22.6094   53.9460 C   0  0  0  0  0  0  0  0  0  0  0  0
   18.9782   25.1227   55.3418 C   0  0  0  0  0  0  0  0  0  0  0  0
   21.1432   25.6672   54.4534 C   0  0  0  0  0  0  0  0  0  0  0  0
   24.6317   24.9343   49.9198 C   0  0  0  0  0  0  0  0  0  0  0  0
   26.0346   20.2677   52.6510 C   0  0  0  0  0  0  0  0  0  0  0  0
   22.4065   25.7117   50.4111 C   0  0  0  0  0  0  0  0  0  0  0  0
   26.4407   21.9946   54.2789 C   0  0  0  0  0  0  0  0  0  0  0  0
   23.5922   25.8312   49.6967 C   0  0  0  0  0  0  0  0  0  0  0  0
   26.8400   20.8292   53.6363 C   0  0  0  0  0  0  0  0  0  0  0  0
   22.5058   21.9520   52.1480 H   0  0  0  0  0  0  0  0  0  0  0  0
   21.1759   22.0531   54.8639 H   0  0  0  0  0  0  0  0  0  0  0  0
   21.0450   21.8270   53.1363 H   0  0  0  0  0  0  0  0  0  0  0  0
   20.1123   24.0780   52.9091 H   0  0  0  0  0  0  0  0  0  0  0  0
   19.1429   23.1092   53.9929 H   0  0  0  0  0  0  0  0  0  0  0  0
   25.2806   23.2247   51.0314 H   0  0  0  0  0  0  0  0  0  0  0  0
   24.2079   20.4453   51.5505 H   0  0  0  0  0  0  0  0  0  0  0  0
   21.3331   24.6083   51.9016 H   0  0  0  0  0  0  0  0  0  0  0  0
   24.9315   23.5069   54.4414 H   0  0  0  0  0  0  0  0  0  0  0  0
   18.3693   24.3269   55.7169 H   0  0  0  0  0  0  0  0  0  0  0  0
   19.1294   25.8498   56.1121 H   0  0  0  0  0  0  0  0  0  0  0  0
   18.4901   25.5827   54.5080 H   0  0  0  0  0  0  0  0  0  0  0  0
   20.7044   26.1396   53.5995 H   0  0  0  0  0  0  0  0  0  0  0  0
   21.2654   26.3869   55.2357 H   0  0  0  0  0  0  0  0  0  0  0  0
   22.0981   25.2647   54.1868 H   0  0  0  0  0  0  0  0  0  0  0  0
   25.5451   25.0266   49.3701 H   0  0  0  0  0  0  0  0  0  0  0  0
   26.3416   19.3699   52.1565 H   0  0  0  0  0  0  0  0  0  0  0  0
   21.6097   26.4041   50.2362 H   0  0  0  0  0  0  0  0  0  0  0  0
   27.0635   22.4228   55.0363 H   0  0  0  0  0  0  0  0  0  0  0  0
   23.7056   26.6130   48.9750 H   0  0  0  0  0  0  0  0  0  0  0  0
   27.7669   20.3638   53.8993 H   0  0  0  0  0  0  0  0  0  0  0  0
   20.7045   24.1444   55.7000 H   0  0  0  0  0  0  0  0  0  0  0  0
  1  3  1  0  0  0  0
  1  6  1  0  0  0  0
  2  7  1  0  0  0  0
  2 12  1  0  0  0  0
  2 13  1  0  0  0  0
  3  4  1  0  0  0  0
  3  5  1  0  0  0  0
  3 20  1  0  0  0  0
  4  8  2  0  0  0  0
  4 10  1  0  0  0  0
  5  9  2  0  0  0  0
  5 11  1  0  0  0  0
  6  7  1  0  0  0  0
  6 21  1  0  0  0  0
  6 22  1  0  0  0  0
  7 23  1  0  0  0  0
  7 24  1  0  0  0  0
  8 14  1  0  0  0  0
  8 25  1  0  0  0  0
  9 15  1  0  0  0  0
  9 26  1  0  0  0  0
 10 16  2  0  0  0  0
 10 27  1  0  0  0  0
 11 17  2  0  0  0  0
 11 28  1  0  0  0  0
 12 29  1  0  0  0  0
 12 30  1  0  0  0  0
 12 31  1  0  0  0  0
 13 32  1  0  0  0  0
 13 33  1  0  0  0  0
 13 34  1  0  0  0  0
 14 18  2  0  0  0  0
 14 35  1  0  0  0  0
 15 19  2  0  0  0  0
 15 36  1  0  0  0  0
 16 18  1  0  0  0  0
 16 37  1  0  0  0  0
 17 19  1  0  0  0  0
 17 38  1  0  0  0  0
 18 39  1  0  0  0  0
 19 40  1  0  0  0  0
  2 41  1  0  0  0  0
M  CHG  1   2   1
M  END
> <BIOSOLVEIT.DOCKING_SCORE>
-12.62

$$$$
