3100_01
ibHydescor03102615543D 1   1.00000     0.00000     0
Hydescorer 2.4.1 ibab
 41 42  0  0  0  0            999 V2000
   37.9997    8.4550   27.7869 O   0  0  0  0  0  0  0  0  0  0  0  0
   36.8233    9.2363   27.6279 C   0  0  0  0  0  0  0  0  0  0  0  0
   35.5944    8.3695   27.8080 C   0  0  0  0  0  0  0  0  0  0  0  0
   34.6629    8.6900   28.7902 C   0  0  0  0  0  0  0  0  0  0  0  0
   33.5361    7.8908   28.9528 C   0  0  0  0  0  0  0  0  0  0  0  0
   33.3466    6.7813   28.1356 C   0  0  0  0  0  0  0  0  0  0  0  0
   34.2833    6.4710   27.1575 C   0  0  0  0  0  0  0  0  0  0  0  0
   35.4146    7.2620   26.9854 C   0  0  0  0  0  0  0  0  0  0  0  0
   36.8273   10.4536   28.5388 C   0  0  0  0  0  0  0  0  0  0  0  0
   36.2514   11.6423   28.1027 C   0  0  0  0  0  0  0  0  0  0  0  0
   36.2580   12.7540   28.9390 C   0  0  0  0  0  0  0  0  0  0  0  0
   36.8363   12.6714   30.2013 C   0  0  0  0  0  0  0  0  0  0  0  0
   37.4080   11.4785   30.6264 C   0  0  0  0  0  0  0  0  0  0  0  0
   37.4085   10.3601   29.7994 C   0  0  0  0  0  0  0  0  0  0  0  0
   39.1338    9.0988   27.2209 C   0  0  0  0  0  0  0  0  0  0  0  0
   38.7592    9.6291   25.8462 C   0  0  0  0  0  0  0  0  0  0  0  0
   39.3282    8.7863   24.7950 N   0  3  0  0  0  0  0  0  0  0  0  0
   39.3501    7.3866   25.2181 C   0  0  0  0  0  0  0  0  0  0  0  0
   40.6762    9.2377   24.4515 C   0  0  0  0  0  0  0  0  0  0  0  0
   36.8140    9.5945   26.6197 H   0  0  0  0  0  0  0  0  0  0  0  0
   34.8122    9.5450   29.4160 H   0  0  0  0  0  0  0  0  0  0  0  0
   32.8152    8.1295   29.7065 H   0  0  0  0  0  0  0  0  0  0  0  0
   32.4795    6.1669   28.2602 H   0  0  0  0  0  0  0  0  0  0  0  0
   34.1332    5.6165   26.5313 H   0  0  0  0  0  0  0  0  0  0  0  0
   36.1354    7.0224   26.2318 H   0  0  0  0  0  0  0  0  0  0  0  0
   35.8067   11.7012   27.1313 H   0  0  0  0  0  0  0  0  0  0  0  0
   35.8181   13.6726   28.6112 H   0  0  0  0  0  0  0  0  0  0  0  0
   36.8409   13.5263   30.8448 H   0  0  0  0  0  0  0  0  0  0  0  0
   37.8517   11.4197   31.5984 H   0  0  0  0  0  0  0  0  0  0  0  0
   37.8491    9.4419   30.1276 H   0  0  0  0  0  0  0  0  0  0  0  0
   39.9372    8.3980   27.1297 H   0  0  0  0  0  0  0  0  0  0  0  0
   39.4377    9.9101   27.8490 H   0  0  0  0  0  0  0  0  0  0  0  0
   39.1347   10.6253   25.7396 H   0  0  0  0  0  0  0  0  0  0  0  0
   37.6934    9.6376   25.7513 H   0  0  0  0  0  0  0  0  0  0  0  0
   38.7518    8.8623   23.9814 H   0  0  0  0  0  0  0  0  0  0  0  0
   39.7686    6.7848   24.4385 H   0  0  0  0  0  0  0  0  0  0  0  0
   39.9456    7.2903   26.1017 H   0  0  0  0  0  0  0  0  0  0  0  0
   38.3519    7.0604   25.4235 H   0  0  0  0  0  0  0  0  0  0  0  0
   41.0769    8.6112   23.6823 H   0  0  0  0  0  0  0  0  0  0  0  0
   40.6358   10.2487   24.1033 H   0  0  0  0  0  0  0  0  0  0  0  0
   41.3020    9.1836   25.3178 H   0  0  0  0  0  0  0  0  0  0  0  0
  1  2  1  0  0  0  0
  1 15  1  0  0  0  0
  2  3  1  0  0  0  0
  2  9  1  0  0  0  0
  3  4  2  0  0  0  0
  3  8  1  0  0  0  0
  4  5  1  0  0  0  0
  5  6  2  0  0  0  0
  6  7  1  0  0  0  0
  7  8  2  0  0  0  0
  9 10  2  0  0  0  0
  9 14  1  0  0  0  0
 10 11  1  0  0  0  0
 11 12  2  0  0  0  0
 12 13  1  0  0  0  0
 13 14  2  0  0  0  0
 15 16  1  0  0  0  0
 16 17  1  0  0  0  0
 17 18  1  0  0  0  0
 17 19  1  0  0  0  0
  2 20  1  0  0  0  0
  4 21  1  0  0  0  0
  5 22  1  0  0  0  0
  6 23  1  0  0  0  0
  7 24  1  0  0  0  0
  8 25  1  0  0  0  0
 10 26  1  0  0  0  0
 11 27  1  0  0  0  0
 12 28  1  0  0  0  0
 13 29  1  0  0  0  0
 14 30  1  0  0  0  0
 15 31  1  0  0  0  0
 15 32  1  0  0  0  0
 16 33  1  0  0  0  0
 16 34  1  0  0  0  0
 17 35  1  0  0  0  0
 18 36  1  0  0  0  0
 18 37  1  0  0  0  0
 18 38  1  0  0  0  0
 19 39  1  0  0  0  0
 19 40  1  0  0  0  0
 19 41  1  0  0  0  0
M  CHG  1  17   1
M  END
> <BIOSOLVEIT.HYDE_ESTIMATED_AFFINITY_LOWER_BOUNDARY [nM]>
16512759975.793468

> <BIOSOLVEIT.HYDE_ESTIMATED_AFFINITY_UPPER_BOUNDARY [nM]>
1640640334758.70166

> <BIOSOLVEIT.HYDE_INPUT_DATA>
AAAPc3iclVZLjh03DNzPKXQCgX+J8NIO4k2cXbZz/1uEEjXO5LUWw8YDXqOgLhWLH4kR4B3wrf1++EfD+MMO69kQfH7/tLS1tybYhAL+9Pvvcff2D8Wn6yMe3af4wme3OdcuFBiwtb/b/ynuv83iXZBss3d0ksWiHUWh/UoW/gKL9UmTkkWR6GhRnu3717VoV3c6EdnUxTI7EVqFxbo7jOU5dFM6LC6GFRZfHnhGJJxaRteBo8Ky9gVNLTDmXCzWCcKrAouEk8TpyzDeWkKVuNR8URgrIsTuOCR9MRolLVEbzMvdNvqEKekLMZXcHbEvnhwJ8qpyho4hppYjGkipZThj1q6uvH2dRSDiUDiZ9p0tkj6xVnUcHSCSWnwaZ47MUWs5MvXFghQ53x0VLMqj5IvEgPnQEuPAM0cyrZTp8NRMsl6ieVbtcowxk4q74Qvr9jS0YJRJVt0AL9YLzWnpyyAfWS9DraTFYt9xetrFLbsxpuhoPytV5256utHhzDoV4BoLg1h2ALrP9IXBrMISPeiTk4WGnIjAVGpaZColS0g5UwpX9gss2hl3ZlYfkWvmiICgwhLqiU+mYc6R7trKfkmLsdmZDDFgztx1KGkZ6ySBjzNgQEYkALPCEidYKggtGmMlp9QQKWmJWUJwIkLdp2RMqaFRzyWWKfNoMVRMXyJbVGCRmAdop49YPyKyMYsscZLM7KPJ7BkRMFeqbk3vSZ61q9lRwSLDS7UbU4rwnLCQZ21k2jjO2lLtkuPWwt05taw+B6xpidrdWqzzQMkcjaKWVXV+Tvuo+/XGtM6FUtVRTIZ9gwotcZU6U2q6FvtIQDR9Ud4dFSeJ6Cj1dOyrBKfqZHdjZJoZC77gvs7iE7UnGi02bui6cVzQC29AckX1hq7YXtH4fG4lLyhe1gapP9dqW/35utausVmj61q6RDwaXSIO9BLxbHhF6eKDN7yi9MxQmBB3tNeIA6VnbGHCum++rsUo5+daamuiPFF+ur7Qp2dRDPz0bKFPzxb6dCcMw2fmA+WnO2EYPjMfKF88s837RPni2di8T5QvDLPxZa3HgL51izw8+6u17z//3GjbV5GF/PHrx9v7t2/vMYY6rheMK6S571cejnG7+BcAjWs2

> <BIOSOLVEIT.HYDE_LIGAND_EFFICIENCY>
-0.1633

> <BIOSOLVEIT.HYDE_LIGAND_LIPOPHILIC_EFFICIENCY>
-4.1535

> <BIOSOLVEIT.INTER_CLASH range: 0=green, 1=yellow, 2=red>
0

> <BIOSOLVEIT.INTRA_CLASH range: 0=green, 1=yellow, 2=red>
0

> <BIOSOLVEIT.LOGP>
1.9371

> <BIOSOLVEIT.MOLECULAR_WEIGHT>
256.3668

> <BIOSOLVEIT.MOLECULE_CHECKSUM>
MTIuNjUxMzstMC4xNjMzMTU=

> <BIOSOLVEIT.NUMBER_OF_H_BONDS>
2

> <BIOSOLVEIT.NUMBER_OF_UNFAVORABLE_TORSIONS>
2

> <BIOSOLVEIT.TORSION_QUALITY range: 0=green/not rotatable, 1=yellow, 2=red>
2

> <BIOSOLVEIT.TPSA>
13.67

$$$$
3100_02
ibHydescor03102615543D 1   1.00000     0.00000     0
Hydescorer 2.4.1 ibab
 41 42  0  0  0  0            999 V2000
   38.3734    8.0619   27.6856 O   0  0  0  0  0  0  0  0  0  0  0  0
   37.3283    9.0237   27.6371 C   0  0  0  0  0  0  0  0  0  0  0  0
   35.9955    8.3342   27.4314 C   0  0  0  0  0  0  0  0  0  0  0  0
   35.5454    7.4107   28.3692 C   0  0  0  0  0  0  0  0  0  0  0  0
   34.3211    6.7792   28.1760 C   0  0  0  0  0  0  0  0  0  0  0  0
   33.5562    7.0738   27.0522 C   0  0  0  0  0  0  0  0  0  0  0  0
   34.0156    7.9984   26.1223 C   0  0  0  0  0  0  0  0  0  0  0  0
   35.2383    8.6362   26.3038 C   0  0  0  0  0  0  0  0  0  0  0  0
   37.3420    9.9333   28.8551 C   0  0  0  0  0  0  0  0  0  0  0  0
   36.1400   10.3332   29.4301 C   0  0  0  0  0  0  0  0  0  0  0  0
   36.1571   11.1662   30.5440 C   0  0  0  0  0  0  0  0  0  0  0  0
   37.3697   11.5920   31.0756 C   0  0  0  0  0  0  0  0  0  0  0  0
   38.5642   11.1858   30.4933 C   0  0  0  0  0  0  0  0  0  0  0  0
   38.5605   10.3535   29.3789 C   0  0  0  0  0  0  0  0  0  0  0  0
   39.4662    8.4371   26.8573 C   0  0  0  0  0  0  0  0  0  0  0  0
   38.9210    9.0198   25.5633 C   0  0  0  0  0  0  0  0  0  0  0  0
   39.6455    8.4856   24.4107 N   0  3  0  0  0  0  0  0  0  0  0  0
   39.7952    7.0355   24.5285 C   0  0  0  0  0  0  0  0  0  0  0  0
   40.9545    9.1262   24.2880 C   0  0  0  0  0  0  0  0  0  0  0  0
   37.5029    9.6391   26.7794 H   0  0  0  0  0  0  0  0  0  0  0  0
   36.1365    7.1877   29.2328 H   0  0  0  0  0  0  0  0  0  0  0  0
   33.9677    6.0668   28.8919 H   0  0  0  0  0  0  0  0  0  0  0  0
   32.6142    6.5884   26.9037 H   0  0  0  0  0  0  0  0  0  0  0  0
   33.4237    8.2217   25.2594 H   0  0  0  0  0  0  0  0  0  0  0  0
   35.5913    9.3480   25.5871 H   0  0  0  0  0  0  0  0  0  0  0  0
   35.2093   10.0026   29.0185 H   0  0  0  0  0  0  0  0  0  0  0  0
   35.2372   11.4795   30.9919 H   0  0  0  0  0  0  0  0  0  0  0  0
   37.3829   12.2323   31.9329 H   0  0  0  0  0  0  0  0  0  0  0  0
   39.4946   11.5161   30.9058 H   0  0  0  0  0  0  0  0  0  0  0  0
   39.4808   10.0411   28.9312 H   0  0  0  0  0  0  0  0  0  0  0  0
   40.0651    7.5773   26.6405 H   0  0  0  0  0  0  0  0  0  0  0  0
   40.0628    9.1701   27.3589 H   0  0  0  0  0  0  0  0  0  0  0  0
   39.0296   10.0841   25.5840 H   0  0  0  0  0  0  0  0  0  0  0  0
   37.8847    8.7688   25.4740 H   0  0  0  0  0  0  0  0  0  0  0  0
   39.1174    8.6835   23.5850 H   0  0  0  0  0  0  0  0  0  0  0  0
   40.3266    6.6615   23.6784 H   0  0  0  0  0  0  0  0  0  0  0  0
   40.3403    6.8044   25.4198 H   0  0  0  0  0  0  0  0  0  0  0  0
   38.8282    6.5796   24.5736 H   0  0  0  0  0  0  0  0  0  0  0  0
   41.4704    8.7243   23.4411 H   0  0  0  0  0  0  0  0  0  0  0  0
   40.8250   10.1805   24.1594 H   0  0  0  0  0  0  0  0  0  0  0  0
   41.5259    8.9425   25.1739 H   0  0  0  0  0  0  0  0  0  0  0  0
  1  2  1  0  0  0  0
  1 15  1  0  0  0  0
  2  3  1  0  0  0  0
  2  9  1  0  0  0  0
  3  4  2  0  0  0  0
  3  8  1  0  0  0  0
  4  5  1  0  0  0  0
  5  6  2  0  0  0  0
  6  7  1  0  0  0  0
  7  8  2  0  0  0  0
  9 10  2  0  0  0  0
  9 14  1  0  0  0  0
 10 11  1  0  0  0  0
 11 12  2  0  0  0  0
 12 13  1  0  0  0  0
 13 14  2  0  0  0  0
 15 16  1  0  0  0  0
 16 17  1  0  0  0  0
 17 18  1  0  0  0  0
 17 19  1  0  0  0  0
  2 20  1  0  0  0  0
  4 21  1  0  0  0  0
  5 22  1  0  0  0  0
  6 23  1  0  0  0  0
  7 24  1  0  0  0  0
  8 25  1  0  0  0  0
 10 26  1  0  0  0  0
 11 27  1  0  0  0  0
 12 28  1  0  0  0  0
 13 29  1  0  0  0  0
 14 30  1  0  0  0  0
 15 31  1  0  0  0  0
 15 32  1  0  0  0  0
 16 33  1  0  0  0  0
 16 34  1  0  0  0  0
 17 35  1  0  0  0  0
 18 36  1  0  0  0  0
 18 37  1  0  0  0  0
 18 38  1  0  0  0  0
 19 39  1  0  0  0  0
 19 40  1  0  0  0  0
 19 41  1  0  0  0  0
M  CHG  1  17   1
M  END
> <BIOSOLVEIT.HYDE_ESTIMATED_AFFINITY_LOWER_BOUNDARY [nM]>
81142946.09487

> <BIOSOLVEIT.HYDE_ESTIMATED_AFFINITY_UPPER_BOUNDARY [nM]>
8062031449.591009

> <BIOSOLVEIT.HYDE_INPUT_DATA>
AAAPc3iclVdLrhw3DNy/U+gEAv8S4aUdxBvbu2zf/W8RSuxxXp60MAcDTINQV5PFYrGHEeAd6K39/vC3hvGDHdZnh+Dj9Yejrb01wSYU4Q/f/z7u3v6huHXdxKP7VFrx2W3O9RSKGLC1X+3/EPfvRvEuSLbRO/q+Iu0o4u1novAfoFifNCVRFAmeXJRn+/rnuWhXd30qsrlqo9mJcFRQrLvDXJxDNyVOFBfDCkqwIQZZkfC0rEgHWgVlPRc0c4ExfaFYJ5ilXLQb8OZl9GFbOeSdhnKNF40UVi7YHcfDi9GgCop0meDZo4kykheBUcplxHPx6ZEgr4oYOkYytR7RwBcvzpTaVVEvoAj0CfrqdCqHJGoL5BovY9fRQn/TJHukWOPFQrG+6kCK6ZlPp5VHiRfurPbMUQhnZo9sKafUo2EbJfQSw7NQOGzMpMLuykWcs0dIm+dQ3QAv6oXm9pfgZZBb6mWolXKxeO58Ou3iktPoM1T8vaI6d5vJ7nCQxxkEqIbCsKcnJoByGwQvDMF4AWX06ZMflCGWFQWI1HKR3CSB4v5yKTTjCoqFSnxkp03TXzzyi56XUID46TRkz5d2ZzhwAWW5lNprH+UE2NoupVzG2iT82gEDUnUC4REFlNhggpa8aNhKutQQKeXiyzHhmSNN7UpMwCjlEv2Q+eRiqJy8CHlFuxJ+gJuN4IUVJSuyEVuthILMr03CwlkRMFdUt9w7Xj1SuwriiSKjVNHSi+3dGO4dLzKPvzBVtUu+O43cneXZAQxQ4YUptOuPvyDPx71BsIQSqtPtKuHe5HtjBzJATXW0mNTkRTm9bq6ZLqluvR/s/gYvSu65SURHaabjuUov1cnA7DQzFrwO9+ssnlE7o2GI4xZFukYvuBGSa1Rv0VXb52jcPncmn6J4ORugfp7Vthzn81m71maNrmfpUvFodKk4opeKZ8NrlC48eMNrlM4OBQlr2uiI0llbkBD/Io6z2JZ3fD5LMba3KJ+sr+jJWYiBT85W9ORsRU92gjA8Ox9RPtkJwvDsfET5wplt3DPKF87Gxj2jfEGYjS9nPQz6Ni1ycPajta/f/97Rtl9FVuSvn9/e3r98eQ8b6rguMN7Kw573JQ+Pf5r0L1RQa0w=

> <BIOSOLVEIT.HYDE_LIGAND_EFFICIENCY>
0.0068

> <BIOSOLVEIT.HYDE_LIGAND_LIPOPHILIC_EFFICIENCY>
-1.8449

> <BIOSOLVEIT.INTER_CLASH range: 0=green, 1=yellow, 2=red>
0

> <BIOSOLVEIT.INTRA_CLASH range: 0=green, 1=yellow, 2=red>
0

> <BIOSOLVEIT.LOGP>
1.9371

> <BIOSOLVEIT.MOLECULAR_WEIGHT>
256.3668

> <BIOSOLVEIT.MOLECULE_CHECKSUM>
LTAuNTI2MDA3OzAuMDA2NzkwMTc=

> <BIOSOLVEIT.NUMBER_OF_H_BONDS>
2

> <BIOSOLVEIT.NUMBER_OF_UNFAVORABLE_TORSIONS>
2

> <BIOSOLVEIT.TORSION_QUALITY range: 0=green/not rotatable, 1=yellow, 2=red>
2

> <BIOSOLVEIT.TPSA>
13.67

$$$$
3100_03
ibHydescor03102615543D 1   1.00000     0.00000     0
Hydescorer 2.4.1 ibab
 41 42  0  0  0  0            999 V2000
   38.5257    8.5600   28.1354 O   0  0  0  0  0  0  0  0  0  0  0  0
   38.2685    8.6967   26.7445 C   0  0  0  0  0  0  0  0  0  0  0  0
   39.5134    8.3620   25.9495 C   0  0  0  0  0  0  0  0  0  0  0  0
   40.2265    7.2037   26.2413 C   0  0  0  0  0  0  0  0  0  0  0  0
   41.3698    6.9004   25.5092 C   0  0  0  0  0  0  0  0  0  0  0  0
   41.7915    7.7519   24.4933 C   0  0  0  0  0  0  0  0  0  0  0  0
   41.0711    8.9057   24.2104 C   0  0  0  0  0  0  0  0  0  0  0  0
   39.9265    9.2205   24.9356 C   0  0  0  0  0  0  0  0  0  0  0  0
   37.0587    7.8899   26.3141 C   0  0  0  0  0  0  0  0  0  0  0  0
   35.9208    7.8744   27.1139 C   0  0  0  0  0  0  0  0  0  0  0  0
   34.8136    7.1323   26.7157 C   0  0  0  0  0  0  0  0  0  0  0  0
   34.8492    6.4142   25.5250 C   0  0  0  0  0  0  0  0  0  0  0  0
   35.9911    6.4376   24.7338 C   0  0  0  0  0  0  0  0  0  0  0  0
   37.1050    7.1752   25.1213 C   0  0  0  0  0  0  0  0  0  0  0  0
   39.2503    9.6724   28.6438 C   0  0  0  0  0  0  0  0  0  0  0  0
   38.4592   10.9401   28.3635 C   0  0  0  0  0  0  0  0  0  0  0  0
   38.7063   11.9426   29.3993 N   0  3  0  0  0  0  0  0  0  0  0  0
   38.6514   11.3304   30.7264 C   0  0  0  0  0  0  0  0  0  0  0  0
   37.7356   13.0318   29.2983 C   0  0  0  0  0  0  0  0  0  0  0  0
   38.0437    9.7270   26.5632 H   0  0  0  0  0  0  0  0  0  0  0  0
   39.8981    6.5510   27.0229 H   0  0  0  0  0  0  0  0  0  0  0  0
   41.9249    6.0122   25.7276 H   0  0  0  0  0  0  0  0  0  0  0  0
   42.6705    7.5182   23.9297 H   0  0  0  0  0  0  0  0  0  0  0  0
   41.3994    9.5577   23.4282 H   0  0  0  0  0  0  0  0  0  0  0  0
   39.3723   10.1093   24.7170 H   0  0  0  0  0  0  0  0  0  0  0  0
   35.8972    8.4292   28.0285 H   0  0  0  0  0  0  0  0  0  0  0  0
   33.9345    7.1138   27.3255 H   0  0  0  0  0  0  0  0  0  0  0  0
   33.9973    5.8440   25.2183 H   0  0  0  0  0  0  0  0  0  0  0  0
   36.0138    5.8835   23.8188 H   0  0  0  0  0  0  0  0  0  0  0  0
   37.9839    7.1927   24.5113 H   0  0  0  0  0  0  0  0  0  0  0  0
   40.2046    9.7302   28.1634 H   0  0  0  0  0  0  0  0  0  0  0  0
   39.3883    9.5603   29.6989 H   0  0  0  0  0  0  0  0  0  0  0  0
   37.4154   10.7056   28.3433 H   0  0  0  0  0  0  0  0  0  0  0  0
   38.7543   11.3357   27.4141 H   0  0  0  0  0  0  0  0  0  0  0  0
   39.6219   12.3205   29.2623 H   0  0  0  0  0  0  0  0  0  0  0  0
   38.8340   12.0765   31.4712 H   0  0  0  0  0  0  0  0  0  0  0  0
   37.6836   10.9011   30.8813 H   0  0  0  0  0  0  0  0  0  0  0  0
   39.3963   10.5656   30.7975 H   0  0  0  0  0  0  0  0  0  0  0  0
   37.9305   13.7552   30.0622 H   0  0  0  0  0  0  0  0  0  0  0  0
   37.8189   13.4960   28.3378 H   0  0  0  0  0  0  0  0  0  0  0  0
   36.7470   12.6411   29.4210 H   0  0  0  0  0  0  0  0  0  0  0  0
  1  2  1  0  0  0  0
  1 15  1  0  0  0  0
  2  3  1  0  0  0  0
  2  9  1  0  0  0  0
  3  4  2  0  0  0  0
  3  8  1  0  0  0  0
  4  5  1  0  0  0  0
  5  6  2  0  0  0  0
  6  7  1  0  0  0  0
  7  8  2  0  0  0  0
  9 10  2  0  0  0  0
  9 14  1  0  0  0  0
 10 11  1  0  0  0  0
 11 12  2  0  0  0  0
 12 13  1  0  0  0  0
 13 14  2  0  0  0  0
 15 16  1  0  0  0  0
 16 17  1  0  0  0  0
 17 18  1  0  0  0  0
 17 19  1  0  0  0  0
  2 20  1  0  0  0  0
  4 21  1  0  0  0  0
  5 22  1  0  0  0  0
  6 23  1  0  0  0  0
  7 24  1  0  0  0  0
  8 25  1  0  0  0  0
 10 26  1  0  0  0  0
 11 27  1  0  0  0  0
 12 28  1  0  0  0  0
 13 29  1  0  0  0  0
 14 30  1  0  0  0  0
 15 31  1  0  0  0  0
 15 32  1  0  0  0  0
 16 33  1  0  0  0  0
 16 34  1  0  0  0  0
 17 35  1  0  0  0  0
 18 36  1  0  0  0  0
 18 37  1  0  0  0  0
 18 38  1  0  0  0  0
 19 39  1  0  0  0  0
 19 40  1  0  0  0  0
 19 41  1  0  0  0  0
M  CHG  1  17   1
M  END
> <BIOSOLVEIT.HYDE_ESTIMATED_AFFINITY_LOWER_BOUNDARY [nM]>
1346724051.434514

> <BIOSOLVEIT.HYDE_ESTIMATED_AFFINITY_UPPER_BOUNDARY [nM]>
133804996972.769653

> <BIOSOLVEIT.HYDE_INPUT_DATA>
AAAPc3iclVdLbh05DNz7FDqBwJ9EEVkmg8lmMrtsff9bpPRx4ri1MB8e4EZBXSaLZFFPmeiV9KX8/ui3wvjDleZnQfT++d3RUl6KcTEB/O775xMR5afg1fmSjmrR28RHHX0MPMioHN3K/+Vvivv3sDQSmRFKJW4+WaLGECs/Not+isXC+4mljRm19OrerHz9fCwx3+DNIvLGIp16hsWrWBxdhEQPC/eRi4WbzAgY5RLmra5TpFhQD/GlLlfWN5bhKRaj2kRjZuTVaNVcvFI4ZWJpNVDWrUsLP7p0H5kaIRYeHJvFBq1+sRrNNFcj9UY7I2H0Glga6gatUuqi1fpWV3qbuiieNNd1Xpu1qQZrZV5RKbIkKJ7QhWuf9cCn16HUjrpCqVgM09NOpSOkbxbu2Vi0bWfwOmLorpENTEUiFsyM7GlEHryiAosbZWpkAk3Fdyzku3dbVe6p3kWHOZ1+IVpzCRYOS/aLha4JCMyg21bXGmn5nnGGYO3bGVS3LgMe4UmWFqY7Fg/u23d7655hwf/1pS4mAAIdZwjHLCRYvDKMbWeELo4dC43eEyxwBqG3GgnH8TqKsEwscCm22Lpof8vIRFO6QEki3izMart3FWnm1FXjMwGIqm2WETkW5MHt9Av6T7dLsWlKl7lX2/E6GMOsuWJjK6VYHI40eMcyxI9jmoVkWHptPc6dwXel4ZgSktIF3qR2fBdrv20W6Mw5lqZrf4AFu2zs3oUzpHpXqnj4rjTvLYmuk5abaa1j/L55jDju3dgy6s5NMkg3Cw1bG1bh3ri/pGqktCa5NHTO6jqwRORiUdwJ7ejSVc4OiGS/GFyAbbM09TONuAQl58jIaHedER2X8tHj8yy8rrP8RPsTRRP4DWW5ohdeQHZF2w2dW+0jitfHiuQDypezII3n2Vamg30826+59SLXs3LJ2ItcMgZ6yXgUvqJy0SEKX1F5VggizL0pD1SeuUEE9udZxop6npUyO/2J6lP1iT41QzPoU7OJPjWb6FMdCMbPygPVpzoQjJ+VB6oXzfrifaJ60cwX7xPVC8MoejkbxS6dKvNn7gf0v1K+fv93oWWtlon88+Pby+uXL68Y+MrzgZnNPNaj4tqE33e/AFSbawo=

> <BIOSOLVEIT.HYDE_LIGAND_EFFICIENCY>
-0.0831

> <BIOSOLVEIT.HYDE_LIGAND_LIPOPHILIC_EFFICIENCY>
-3.065

> <BIOSOLVEIT.INTER_CLASH range: 0=green, 1=yellow, 2=red>
0

> <BIOSOLVEIT.INTRA_CLASH range: 0=green, 1=yellow, 2=red>
0

> <BIOSOLVEIT.LOGP>
1.9371

> <BIOSOLVEIT.MOLECULAR_WEIGHT>
256.3668

> <BIOSOLVEIT.MOLECULE_CHECKSUM>
Ni40Mzc5MjstMC4wODMxMDY2

> <BIOSOLVEIT.NUMBER_OF_H_BONDS>
2

> <BIOSOLVEIT.NUMBER_OF_UNFAVORABLE_TORSIONS>
2

> <BIOSOLVEIT.TORSION_QUALITY range: 0=green/not rotatable, 1=yellow, 2=red>
2

> <BIOSOLVEIT.TPSA>
13.67

$$$$
3100_04
ibHydescor03102615543D 1   1.00000     0.00000     0
Hydescorer 2.4.1 ibab
 41 42  0  0  0  0            999 V2000
   37.8646    8.1304   27.4994 O   0  0  0  0  0  0  0  0  0  0  0  0
   36.8466    9.1196   27.4323 C   0  0  0  0  0  0  0  0  0  0  0  0
   35.4994    8.5023   27.7456 C   0  0  0  0  0  0  0  0  0  0  0  0
   35.0480    8.4642   29.0609 C   0  0  0  0  0  0  0  0  0  0  0  0
   33.8106    7.8955   29.3444 C   0  0  0  0  0  0  0  0  0  0  0  0
   33.0340    7.3716   28.3163 C   0  0  0  0  0  0  0  0  0  0  0  0
   33.4948    7.4156   27.0062 C   0  0  0  0  0  0  0  0  0  0  0  0
   34.7307    7.9810   26.7098 C   0  0  0  0  0  0  0  0  0  0  0  0
   37.1664   10.3187   28.3105 C   0  0  0  0  0  0  0  0  0  0  0  0
   36.3972   11.4730   28.2074 C   0  0  0  0  0  0  0  0  0  0  0  0
   36.6939   12.5682   29.0122 C   0  0  0  0  0  0  0  0  0  0  0  0
   37.7521   12.5035   29.9124 C   0  0  0  0  0  0  0  0  0  0  0  0
   38.5134   11.3450   30.0072 C   0  0  0  0  0  0  0  0  0  0  0  0
   38.2273   10.2434   29.2075 C   0  0  0  0  0  0  0  0  0  0  0  0
   38.2175    7.6566   26.2064 C   0  0  0  0  0  0  0  0  0  0  0  0
   39.6169    8.1474   25.8713 C   0  0  0  0  0  0  0  0  0  0  0  0
   39.5754    9.1193   24.7792 N   0  3  0  0  0  0  0  0  0  0  0  0
   40.8944    9.2495   24.1607 C   0  0  0  0  0  0  0  0  0  0  0  0
   39.1092   10.4167   25.2670 C   0  0  0  0  0  0  0  0  0  0  0  0
   36.8086    9.4678   26.4213 H   0  0  0  0  0  0  0  0  0  0  0  0
   35.6482    8.8693   29.8486 H   0  0  0  0  0  0  0  0  0  0  0  0
   33.4562    7.8611   30.3534 H   0  0  0  0  0  0  0  0  0  0  0  0
   32.0818    6.9347   28.5342 H   0  0  0  0  0  0  0  0  0  0  0  0
   32.8939    7.0113   26.2186 H   0  0  0  0  0  0  0  0  0  0  0  0
   35.0847    8.0144   25.7006 H   0  0  0  0  0  0  0  0  0  0  0  0
   35.5833   11.5182   27.5142 H   0  0  0  0  0  0  0  0  0  0  0  0
   36.1079   13.4605   28.9388 H   0  0  0  0  0  0  0  0  0  0  0  0
   37.9799   13.3456   30.5319 H   0  0  0  0  0  0  0  0  0  0  0  0
   39.3266   11.2999   30.7011 H   0  0  0  0  0  0  0  0  0  0  0  0
   38.8142    9.3517   29.2811 H   0  0  0  0  0  0  0  0  0  0  0  0
   37.5223    8.0305   25.4840 H   0  0  0  0  0  0  0  0  0  0  0  0
   38.1998    6.5867   26.1980 H   0  0  0  0  0  0  0  0  0  0  0  0
   40.2204    7.3142   25.5774 H   0  0  0  0  0  0  0  0  0  0  0  0
   40.0439    8.6094   26.7368 H   0  0  0  0  0  0  0  0  0  0  0  0
   38.9322    8.7912   24.0874 H   0  0  0  0  0  0  0  0  0  0  0  0
   40.8463    9.9633   23.3650 H   0  0  0  0  0  0  0  0  0  0  0  0
   41.6010    9.5793   24.8935 H   0  0  0  0  0  0  0  0  0  0  0  0
   41.2008    8.3012   23.7711 H   0  0  0  0  0  0  0  0  0  0  0  0
   39.0849   11.1147   24.4565 H   0  0  0  0  0  0  0  0  0  0  0  0
   38.1263   10.3115   25.6767 H   0  0  0  0  0  0  0  0  0  0  0  0
   39.7752   10.7730   26.0249 H   0  0  0  0  0  0  0  0  0  0  0  0
  1  2  1  0  0  0  0
  1 15  1  0  0  0  0
  2  3  1  0  0  0  0
  2  9  1  0  0  0  0
  3  4  2  0  0  0  0
  3  8  1  0  0  0  0
  4  5  1  0  0  0  0
  5  6  2  0  0  0  0
  6  7  1  0  0  0  0
  7  8  2  0  0  0  0
  9 10  2  0  0  0  0
  9 14  1  0  0  0  0
 10 11  1  0  0  0  0
 11 12  2  0  0  0  0
 12 13  1  0  0  0  0
 13 14  2  0  0  0  0
 15 16  1  0  0  0  0
 16 17  1  0  0  0  0
 17 18  1  0  0  0  0
 17 19  1  0  0  0  0
  2 20  1  0  0  0  0
  4 21  1  0  0  0  0
  5 22  1  0  0  0  0
  6 23  1  0  0  0  0
  7 24  1  0  0  0  0
  8 25  1  0  0  0  0
 10 26  1  0  0  0  0
 11 27  1  0  0  0  0
 12 28  1  0  0  0  0
 13 29  1  0  0  0  0
 14 30  1  0  0  0  0
 15 31  1  0  0  0  0
 15 32  1  0  0  0  0
 16 33  1  0  0  0  0
 16 34  1  0  0  0  0
 17 35  1  0  0  0  0
 18 36  1  0  0  0  0
 18 37  1  0  0  0  0
 18 38  1  0  0  0  0
 19 39  1  0  0  0  0
 19 40  1  0  0  0  0
 19 41  1  0  0  0  0
M  CHG  1  17   1
M  END
> <BIOSOLVEIT.HYDE_ESTIMATED_AFFINITY_LOWER_BOUNDARY [nM]>
5649100872.038376

> <BIOSOLVEIT.HYDE_ESTIMATED_AFFINITY_UPPER_BOUNDARY [nM]>
561271571764.693726

> <BIOSOLVEIT.HYDE_INPUT_DATA>
AAAPc3iclVY7blwxDOx9Cp1AED/iBy6dIG7idGl9/1uE+qzjWCrCxQL7QOjNkjPkUAStvTd+Kh8f+lYgfqC28Zmh9vn509FSngpDYYzwp+/fj7uX3xivjpdIq3X2Ebdqwj0eUKtYx/Kr/Atx/04Ur9KQJ3pFFRoovUYZXt4WCv0HilTRvlEE1FcuTtDKy//n0msnglWROMpAsYreJYMi1ZuOXKBVbdoXiksOJdiFRy6IPiuSykCWQQlOCbdGzR0Wu2YCGRSuwqSL3dZtPKFXai3JC6GMXACqd6fFi1rUltKIzIcyRSvb6hcdmvccu+K+NWKanUMxFiqZiriFqrZ5Ae4zF67du+Y0YpnKjFx8zmVo5C2HQvG/0ne/tN6XRkKUmgCpnXG8Cxga0VZayVJKcyWaM1hiLhlxT+PonJRG3sRWv/DCo7AxMM7xwky2cnFXfEwjYC4XoulSwUs4A65+sU6pORrzC7iUhoaweGnArbxmckFqvH0XzFe/KInmUEiH0485wm7bXzq0nkHxodHDXxr0haIAnENBN9u54KMilEBOoHBVWRVFVua7dw0ilkAJJsHbUhq6tI9NIhkUCS9R3RXBUlqqDY9IoFi4yny3TI+w1XXYOKM0x8yQPpxBp1pI1ZUzGgUK4nKG8ElYzsA1VncSJS4KsjcJe19K8+jiBEpMD2Dbjom8e1e7pTQKX2Nqy1+I50RFLiG05TTidQuKXGKptZVLTGgql3DbZnumWW0rzcPHU10HYydHLqEvzH4ZOwBaqiKOjl2bZMwC7HsdMyd56UB72yNPlHBvU01NQLjtxyYhnt4ZFUV+KZTI3uc0Bi/RfnuTdAv3TlXkBttfiBnWBBC2hL/AvM7CGZUzGn+lt+jI4RK94EaIr9F+i46J+hqN121m8iUKl7MB6ufZHg1wnpVrbVLwehYvFWuY2DV6qdgKXKN44cELXKN4KhQkxFb4WnFE8awtSAA9z0JcRs6zWMad/YzSyfqInpxFM9DJ2YienI3oyU4QBqfyEaWTnSAMTuUjShfOZOKeUbpwphP3jNIFwQpdznosi9u08MHZz1JeXn/MaJlXtBH5/vbt6f35+R0rVxgPACDsPh/DmGIL4R+vpmtL

> <BIOSOLVEIT.HYDE_LIGAND_EFFICIENCY>
-0.129

> <BIOSOLVEIT.HYDE_LIGAND_LIPOPHILIC_EFFICIENCY>
-3.6877

> <BIOSOLVEIT.INTER_CLASH range: 0=green, 1=yellow, 2=red>
0

> <BIOSOLVEIT.INTRA_CLASH range: 0=green, 1=yellow, 2=red>
0

> <BIOSOLVEIT.LOGP>
1.9371

> <BIOSOLVEIT.MOLECULAR_WEIGHT>
256.3668

> <BIOSOLVEIT.MOLECULE_CHECKSUM>
OS45OTIzOy0wLjEyODk5

> <BIOSOLVEIT.NUMBER_OF_H_BONDS>
2

> <BIOSOLVEIT.NUMBER_OF_UNFAVORABLE_TORSIONS>
1

> <BIOSOLVEIT.TORSION_QUALITY range: 0=green/not rotatable, 1=yellow, 2=red>
1

> <BIOSOLVEIT.TPSA>
13.67

$$$$
3100_05
ibHydescor03102615543D 1   1.00000     0.00000     0
Hydescorer 2.4.1 ibab
 41 42  0  0  0  0            999 V2000
   38.1392    8.3339   27.8406 O   0  0  0  0  0  0  0  0  0  0  0  0
   37.6578    8.3086   26.5038 C   0  0  0  0  0  0  0  0  0  0  0  0
   38.4935    7.3623   25.6674 C   0  0  0  0  0  0  0  0  0  0  0  0
   37.8745    6.5398   24.7317 C   0  0  0  0  0  0  0  0  0  0  0  0
   38.6458    5.6714   23.9662 C   0  0  0  0  0  0  0  0  0  0  0  0
   40.0254    5.6310   24.1382 C   0  0  0  0  0  0  0  0  0  0  0  0
   40.6330    6.4574   25.0754 C   0  0  0  0  0  0  0  0  0  0  0  0
   39.8727    7.3297   25.8475 C   0  0  0  0  0  0  0  0  0  0  0  0
   36.1751    7.9952   26.4455 C   0  0  0  0  0  0  0  0  0  0  0  0
   35.5917    7.2340   27.4530 C   0  0  0  0  0  0  0  0  0  0  0  0
   34.2315    6.9481   27.3953 C   0  0  0  0  0  0  0  0  0  0  0  0
   33.4652    7.4236   26.3363 C   0  0  0  0  0  0  0  0  0  0  0  0
   34.0587    8.1834   25.3358 C   0  0  0  0  0  0  0  0  0  0  0  0
   35.4179    8.4755   25.3818 C   0  0  0  0  0  0  0  0  0  0  0  0
   37.9358    9.6049   28.4443 C   0  0  0  0  0  0  0  0  0  0  0  0
   39.2903   10.2448   28.7037 C   0  0  0  0  0  0  0  0  0  0  0  0
   39.1336   11.5200   29.4023 N   0  3  0  0  0  0  0  0  0  0  0  0
   38.7687   11.2954   30.8006 C   0  0  0  0  0  0  0  0  0  0  0  0
   38.1268   12.3467   28.7376 C   0  0  0  0  0  0  0  0  0  0  0  0
   37.7906    9.2906   26.1001 H   0  0  0  0  0  0  0  0  0  0  0  0
   36.8130    6.5749   24.6018 H   0  0  0  0  0  0  0  0  0  0  0  0
   38.1776    5.0345   23.2449 H   0  0  0  0  0  0  0  0  0  0  0  0
   40.6188    4.9635   23.5488 H   0  0  0  0  0  0  0  0  0  0  0  0
   41.6946    6.4226   25.2043 H   0  0  0  0  0  0  0  0  0  0  0  0
   40.3414    7.9658   26.5690 H   0  0  0  0  0  0  0  0  0  0  0  0
   36.1847    6.8710   28.2664 H   0  0  0  0  0  0  0  0  0  0  0  0
   33.7747    6.3625   28.1656 H   0  0  0  0  0  0  0  0  0  0  0  0
   32.4188    7.2042   26.2922 H   0  0  0  0  0  0  0  0  0  0  0  0
   33.4652    8.5469   24.5231 H   0  0  0  0  0  0  0  0  0  0  0  0
   35.8741    9.0607   24.6107 H   0  0  0  0  0  0  0  0  0  0  0  0
   37.4118    9.4842   29.3693 H   0  0  0  0  0  0  0  0  0  0  0  0
   37.3635   10.2273   27.7886 H   0  0  0  0  0  0  0  0  0  0  0  0
   39.7835   10.4143   27.7694 H   0  0  0  0  0  0  0  0  0  0  0  0
   39.8812    9.5854   29.3045 H   0  0  0  0  0  0  0  0  0  0  0  0
   40.0081   12.0045   29.3771 H   0  0  0  0  0  0  0  0  0  0  0  0
   38.6582   12.2372   31.2962 H   0  0  0  0  0  0  0  0  0  0  0  0
   37.8447   10.7579   30.8461 H   0  0  0  0  0  0  0  0  0  0  0  0
   39.5362   10.7266   31.2825 H   0  0  0  0  0  0  0  0  0  0  0  0
   38.0250   13.2744   29.2609 H   0  0  0  0  0  0  0  0  0  0  0  0
   38.4307   12.5373   27.7295 H   0  0  0  0  0  0  0  0  0  0  0  0
   37.1881   11.8332   28.7362 H   0  0  0  0  0  0  0  0  0  0  0  0
  1  2  1  0  0  0  0
  1 15  1  0  0  0  0
  2  3  1  0  0  0  0
  2  9  1  0  0  0  0
  3  4  2  0  0  0  0
  3  8  1  0  0  0  0
  4  5  1  0  0  0  0
  5  6  2  0  0  0  0
  6  7  1  0  0  0  0
  7  8  2  0  0  0  0
  9 10  2  0  0  0  0
  9 14  1  0  0  0  0
 10 11  1  0  0  0  0
 11 12  2  0  0  0  0
 12 13  1  0  0  0  0
 13 14  2  0  0  0  0
 15 16  1  0  0  0  0
 16 17  1  0  0  0  0
 17 18  1  0  0  0  0
 17 19  1  0  0  0  0
  2 20  1  0  0  0  0
  4 21  1  0  0  0  0
  5 22  1  0  0  0  0
  6 23  1  0  0  0  0
  7 24  1  0  0  0  0
  8 25  1  0  0  0  0
 10 26  1  0  0  0  0
 11 27  1  0  0  0  0
 12 28  1  0  0  0  0
 13 29  1  0  0  0  0
 14 30  1  0  0  0  0
 15 31  1  0  0  0  0
 15 32  1  0  0  0  0
 16 33  1  0  0  0  0
 16 34  1  0  0  0  0
 17 35  1  0  0  0  0
 18 36  1  0  0  0  0
 18 37  1  0  0  0  0
 18 38  1  0  0  0  0
 19 39  1  0  0  0  0
 19 40  1  0  0  0  0
 19 41  1  0  0  0  0
M  CHG  1  17   1
M  END
> <BIOSOLVEIT.HYDE_ESTIMATED_AFFINITY_LOWER_BOUNDARY [nM]>
3648070.191185

> <BIOSOLVEIT.HYDE_ESTIMATED_AFFINITY_UPPER_BOUNDARY [nM]>
362457342.59225

> <BIOSOLVEIT.HYDE_INPUT_DATA>
AAAPc3iclVdLjh03DNzPKXQCQfxKhJd2EG9s77Kd+98ipNjjTJ60MBsPmEZBTZDFKlJDMMb7kLf2+6FvDfwP9BHPhsbn909HW3trDI3R4U+//x4za/+gfxof0epTZAa+uiKTv+Dsxo79av8Pcf89UczWzhC68uTAPEEe2n5mFPqjKKQgmQvziqxQuxjM9vXPc7GOjJFBm52Bo3aUbkhQiaJ9LeLMBQhG5sITVyVKVES0We/L5mY3akOqVUSKwQaMTrSCIbTOZlrLRaftirwOI0xeBgvXeBnI/NEjxdSL4JBCFB5dh1L2iEKQm12wibVcXGArowhOyIoIqJJLOCB75Np1K2hg0HlBqUez+wehEsAOapQ9cj2PWqfZINho0oVTu9yZuKRd7qr2oV3Bx9M8ZkUv7ByMRY9eWB92ZVqpolCYPT1CWpZRELCUy+hLstOegX+cvMxRY5c7rI/JILxWqg4FraYX15qkpynY2FGG27t9r+iF1p6TMRnQnsmwpqxKFJ8vvL+FcFQ6YPoEhlKUqIMhc1EEyOntSXEhCsds2iqJKWXJi/UhJjVeFA1SdQLyOGAxQiVKTIbtRneAAfAzd4dqpSJft5RudB8BPHpZ02dnqaIxt5PDAWs92hWo9kjlY0ohiOWUMp0lXpwDWyOnlOD2gkdZOqhWkak++2jp3tMeRecodVr9zsAzK2LbO8X1IqPWaXeyjnAjUPeh8qhu6qpo13kZoJK8YM5O1wuBlHhxtTsJ0WlXLKXqyO9Xq8QL+8UOnhsZ2XhywWEVXhg7y55wMb2RNefujK1WysUL0owyJ0tql1ArUWKTLHx4mZa8sG+DUfKR95cHpI8ItxfizqBSmruujdzx0em5nj3ttizkAvs6CyeqJ+p2nzc0dtgFvcR1iK+o3NDg+RX1z9fO5AWFy1kPaudZabEVXs/qtTZteD2Ll4pnw0vFjl4qXg2uKF54sAZXFM8OOQmgR8WO4lmbkxDOfD0LbtDzLLqwbiidrAd6cuZioJOzQE/OAj3ZccLg7LyjdLLjhMHZeUfpwpnuuCdKF87mjnuidImw3KAnao0vSsX4N/cF/dHa1+9/bzQqaRDIXz+/vb1/+fLuI7FDvPgu9/vE2K9+gwMc+C9kBWqt

> <BIOSOLVEIT.HYDE_LIGAND_EFFICIENCY>
0.1061

> <BIOSOLVEIT.HYDE_LIGAND_LIPOPHILIC_EFFICIENCY>
-0.4978

> <BIOSOLVEIT.INTER_CLASH range: 0=green, 1=yellow, 2=red>
0

> <BIOSOLVEIT.INTRA_CLASH range: 0=green, 1=yellow, 2=red>
0

> <BIOSOLVEIT.LOGP>
1.9371

> <BIOSOLVEIT.MOLECULAR_WEIGHT>
256.3668

> <BIOSOLVEIT.MOLECULE_CHECKSUM>
LTguMjE1Nzc7MC4xMDYwNTc=

> <BIOSOLVEIT.NUMBER_OF_H_BONDS>
2

> <BIOSOLVEIT.NUMBER_OF_UNFAVORABLE_TORSIONS>
0

> <BIOSOLVEIT.TORSION_QUALITY range: 0=green/not rotatable, 1=yellow, 2=red>
0

> <BIOSOLVEIT.TPSA>
13.67

$$$$
3100_06
ibHydescor03102615543D 1   1.00000     0.00000     0
Hydescorer 2.4.1 ibab
 41 42  0  0  0  0            999 V2000
   38.4875    8.5019   28.0800 O   0  0  0  0  0  0  0  0  0  0  0  0
   38.1856    8.5391   26.6919 C   0  0  0  0  0  0  0  0  0  0  0  0
   39.0619    7.5575   25.9421 C   0  0  0  0  0  0  0  0  0  0  0  0
   38.5125    6.7768   24.9303 C   0  0  0  0  0  0  0  0  0  0  0  0
   39.3207    5.8759   24.2445 C   0  0  0  0  0  0  0  0  0  0  0  0
   40.6679    5.7616   24.5715 C   0  0  0  0  0  0  0  0  0  0  0  0
   41.2058    6.5468   25.5836 C   0  0  0  0  0  0  0  0  0  0  0  0
   40.4080    7.4510   26.2771 C   0  0  0  0  0  0  0  0  0  0  0  0
   36.7065    8.3277   26.4321 C   0  0  0  0  0  0  0  0  0  0  0  0
   36.1128    8.9092   25.3167 C   0  0  0  0  0  0  0  0  0  0  0  0
   34.7556    8.7134   25.0826 C   0  0  0  0  0  0  0  0  0  0  0  0
   34.0029    7.9398   25.9600 C   0  0  0  0  0  0  0  0  0  0  0  0
   34.6068    7.3634   27.0707 C   0  0  0  0  0  0  0  0  0  0  0  0
   35.9629    7.5522   27.3161 C   0  0  0  0  0  0  0  0  0  0  0  0
   39.2430    9.6378   28.4801 C   0  0  0  0  0  0  0  0  0  0  0  0
   38.3951   10.8838   28.2795 C   0  0  0  0  0  0  0  0  0  0  0  0
   38.7217   11.8975   29.2818 N   0  3  0  0  0  0  0  0  0  0  0  0
   38.7689   11.3005   30.6161 C   0  0  0  0  0  0  0  0  0  0  0  0
   37.7470   12.9870   29.2434 C   0  0  0  0  0  0  0  0  0  0  0  0
   38.4328    9.5187   26.3395 H   0  0  0  0  0  0  0  0  0  0  0  0
   37.4760    6.8685   24.6813 H   0  0  0  0  0  0  0  0  0  0  0  0
   38.9061    5.2709   23.4654 H   0  0  0  0  0  0  0  0  0  0  0  0
   41.2897    5.0690   24.0437 H   0  0  0  0  0  0  0  0  0  0  0  0
   42.2426    6.4554   25.8317 H   0  0  0  0  0  0  0  0  0  0  0  0
   40.8232    8.0553   27.0564 H   0  0  0  0  0  0  0  0  0  0  0  0
   36.6956    9.5028   24.6438 H   0  0  0  0  0  0  0  0  0  0  0  0
   34.2906    9.1578   24.2275 H   0  0  0  0  0  0  0  0  0  0  0  0
   32.9591    7.7887   25.7797 H   0  0  0  0  0  0  0  0  0  0  0  0
   34.0237    6.7692   27.7429 H   0  0  0  0  0  0  0  0  0  0  0  0
   36.4271    7.1079   28.1717 H   0  0  0  0  0  0  0  0  0  0  0  0
   40.1304    9.7071   27.8863 H   0  0  0  0  0  0  0  0  0  0  0  0
   39.5105    9.5468   29.5121 H   0  0  0  0  0  0  0  0  0  0  0  0
   37.3611   10.6230   28.3676 H   0  0  0  0  0  0  0  0  0  0  0  0
   38.5807   11.2818   27.3038 H   0  0  0  0  0  0  0  0  0  0  0  0
   39.6244   12.2725   29.0705 H   0  0  0  0  0  0  0  0  0  0  0  0
   39.0087   12.0548   31.3361 H   0  0  0  0  0  0  0  0  0  0  0  0
   37.8157   10.8744   30.8500 H   0  0  0  0  0  0  0  0  0  0  0  0
   39.5167   10.5356   30.6384 H   0  0  0  0  0  0  0  0  0  0  0  0
   38.0006   13.7187   29.9818 H   0  0  0  0  0  0  0  0  0  0  0  0
   37.7566   13.4403   28.2742 H   0  0  0  0  0  0  0  0  0  0  0  0
   36.7705   12.5993   29.4462 H   0  0  0  0  0  0  0  0  0  0  0  0
  1  2  1  0  0  0  0
  1 15  1  0  0  0  0
  2  3  1  0  0  0  0
  2  9  1  0  0  0  0
  3  4  2  0  0  0  0
  3  8  1  0  0  0  0
  4  5  1  0  0  0  0
  5  6  2  0  0  0  0
  6  7  1  0  0  0  0
  7  8  2  0  0  0  0
  9 10  2  0  0  0  0
  9 14  1  0  0  0  0
 10 11  1  0  0  0  0
 11 12  2  0  0  0  0
 12 13  1  0  0  0  0
 13 14  2  0  0  0  0
 15 16  1  0  0  0  0
 16 17  1  0  0  0  0
 17 18  1  0  0  0  0
 17 19  1  0  0  0  0
  2 20  1  0  0  0  0
  4 21  1  0  0  0  0
  5 22  1  0  0  0  0
  6 23  1  0  0  0  0
  7 24  1  0  0  0  0
  8 25  1  0  0  0  0
 10 26  1  0  0  0  0
 11 27  1  0  0  0  0
 12 28  1  0  0  0  0
 13 29  1  0  0  0  0
 14 30  1  0  0  0  0
 15 31  1  0  0  0  0
 15 32  1  0  0  0  0
 16 33  1  0  0  0  0
 16 34  1  0  0  0  0
 17 35  1  0  0  0  0
 18 36  1  0  0  0  0
 18 37  1  0  0  0  0
 18 38  1  0  0  0  0
 19 39  1  0  0  0  0
 19 40  1  0  0  0  0
 19 41  1  0  0  0  0
M  CHG  1  17   1
M  END
> <BIOSOLVEIT.HYDE_ESTIMATED_AFFINITY_LOWER_BOUNDARY [nM]>
38951649.58495

> <BIOSOLVEIT.HYDE_ESTIMATED_AFFINITY_UPPER_BOUNDARY [nM]>
3870076686.643344

> <BIOSOLVEIT.HYDE_INPUT_DATA>
AAAPc3iclVdLblwhENz7FJwA9Y8G5GUcxZs4u2x9/1uk+DhxBhbukSU/lXnloqq7YZSJ3smf0t+PviTGL840PhOiz8+flqb0lIyTCeBPP/8+vff0W/DqeElb9urz7y13YseDtEwNi36l/ynuP5ulWC9DIefeqQ6WnruD5W2x6JdYvAlvLap9sHh275K+fV1Lz0Vs7qjm2hstFhbXCEvNUl22lkK2WYh6TIs0nckhLldZ7rqRR1haFp5uwF2WsjNqCsdDWqj79oV618FSUEQSctfhaZG1IybeLNaKBViMcuUqS4v50gJm5xbTgv/bFktj2kkLacgX5FFMlrtCPmpXxxNxrF6KtZmRZjIfGSkcgphYRq3yYEmeqcz6E8uFaiijgjes7oxYbLF098iOjOGu2dJiYr7dLR7KqGTuVXdGqmXVi6MxY1rIp6epoHK6LRZWC3Wj5Ur+MV9qrbsDXIMZ8aqXhLSstuWLVjj0GukAWm4gI5M2WSpUoaO+zgItVWcPDi2itOZuGVM0wNLg5PQUHQB3y9ZSJLKjOTE/JoNb06WFpFNQS/Xd0+qiuwOEa0yLserSAk930sborUBGqDrtbdUL8exL+OKCmRPQ4rmtyY8+6tL2SeK1hTLqqJI54Ua9+Kw6TClqLehuG8f/TBoje/CpYG+xHdWPHoSWuiYDtGh3i/lS2pqYkh1NuCam9FjtYqrQunnouClsFpzYJcZSeE7bwaJz0qB2BYd3LCPcgvaUKiyzp8FnGqrdMu4q210c0311gHWJJG2SjYxX1bHzvktVjWWEzqvT01G7Pm8y6CO0ecQX9JG7jh5MOIW4lrWjWjTSjaqousWC6d3mTQYsPqZ3rI903hlQdba1YIp2CrjL8zrLJ+oniqKqN5Tlil54AdkVLTcUVXKgeL1NJQ8oX9aCtJ9rCwbGudave/Mk17Vy2XFNctkx0MuOW+IrKhcfeuIrKmdCMGF865EDlXNvMGGcJY9rOY1ef1wrKKwbqqfrAz09QzHo6dlAT88GeroDw/hMHqie7sAwPpMHqhfPfPKeqF48q5P3RPXC0JJe1vZkl0qV8TX3Af2Z0rfXHxNNc5wP5Pvby9P78/M7Gj7zeGDGRGx9PmrtuKTLHzaYa1o=

> <BIOSOLVEIT.HYDE_LIGAND_EFFICIENCY>
0.0303

> <BIOSOLVEIT.HYDE_LIGAND_LIPOPHILIC_EFFICIENCY>
-1.5262

> <BIOSOLVEIT.INTER_CLASH range: 0=green, 1=yellow, 2=red>
0

> <BIOSOLVEIT.INTRA_CLASH range: 0=green, 1=yellow, 2=red>
0

> <BIOSOLVEIT.LOGP>
1.9371

> <BIOSOLVEIT.MOLECULAR_WEIGHT>
256.3668

> <BIOSOLVEIT.MOLECULE_CHECKSUM>
LTIuMzQ1Mjk7MC4wMzAyNzUy

> <BIOSOLVEIT.NUMBER_OF_H_BONDS>
2

> <BIOSOLVEIT.NUMBER_OF_UNFAVORABLE_TORSIONS>
1

> <BIOSOLVEIT.TORSION_QUALITY range: 0=green/not rotatable, 1=yellow, 2=red>
1

> <BIOSOLVEIT.TPSA>
13.67

$$$$
3100_07
ibHydescor03102615543D 1   1.00000     0.00000     0
Hydescorer 2.4.1 ibab
 41 42  0  0  0  0            999 V2000
   38.2243    8.3361   27.8201 O   0  0  0  0  0  0  0  0  0  0  0  0
   37.8453    8.3465   26.4505 C   0  0  0  0  0  0  0  0  0  0  0  0
   38.7042    7.3771   25.6654 C   0  0  0  0  0  0  0  0  0  0  0  0
   38.1166    6.5526   24.7115 C   0  0  0  0  0  0  0  0  0  0  0  0
   38.9090    5.6631   23.9931 C   0  0  0  0  0  0  0  0  0  0  0  0
   40.2783    5.6037   24.2302 C   0  0  0  0  0  0  0  0  0  0  0  0
   40.8544    6.4325   25.1850 C   0  0  0  0  0  0  0  0  0  0  0  0
   40.0728    7.3257   25.9103 C   0  0  0  0  0  0  0  0  0  0  0  0
   36.3603    8.0943   26.2757 C   0  0  0  0  0  0  0  0  0  0  0  0
   35.6878    8.6587   25.1967 C   0  0  0  0  0  0  0  0  0  0  0  0
   34.3253    8.4255   25.0405 C   0  0  0  0  0  0  0  0  0  0  0  0
   33.6457    7.6320   25.9588 C   0  0  0  0  0  0  0  0  0  0  0  0
   34.3279    7.0730   27.0325 C   0  0  0  0  0  0  0  0  0  0  0  0
   35.6901    7.2992   27.2000 C   0  0  0  0  0  0  0  0  0  0  0  0
   37.9805    9.5928   28.4384 C   0  0  0  0  0  0  0  0  0  0  0  0
   39.3148   10.2607   28.7301 C   0  0  0  0  0  0  0  0  0  0  0  0
   39.1151   11.5296   29.4294 N   0  3  0  0  0  0  0  0  0  0  0  0
   38.7186   11.2916   30.8169 C   0  0  0  0  0  0  0  0  0  0  0  0
   38.1096   12.3393   28.7422 C   0  0  0  0  0  0  0  0  0  0  0  0
   38.0472    9.3270   26.0729 H   0  0  0  0  0  0  0  0  0  0  0  0
   37.0630    6.6021   24.5317 H   0  0  0  0  0  0  0  0  0  0  0  0
   38.4650    5.0246   23.2582 H   0  0  0  0  0  0  0  0  0  0  0  0
   40.8879    4.9199   23.6773 H   0  0  0  0  0  0  0  0  0  0  0  0
   41.9081    6.3831   25.3640 H   0  0  0  0  0  0  0  0  0  0  0  0
   40.5174    7.9637   26.6454 H   0  0  0  0  0  0  0  0  0  0  0  0
   36.2147    9.2677   24.4921 H   0  0  0  0  0  0  0  0  0  0  0  0
   33.8001    8.8566   24.2140 H   0  0  0  0  0  0  0  0  0  0  0  0
   32.5979    7.4520   25.8384 H   0  0  0  0  0  0  0  0  0  0  0  0
   33.8009    6.4634   27.7365 H   0  0  0  0  0  0  0  0  0  0  0  0
   36.2145    6.8684   28.0272 H   0  0  0  0  0  0  0  0  0  0  0  0
   37.4441    9.4461   29.3525 H   0  0  0  0  0  0  0  0  0  0  0  0
   37.4044   10.2110   27.7821 H   0  0  0  0  0  0  0  0  0  0  0  0
   39.8249   10.4444   27.8076 H   0  0  0  0  0  0  0  0  0  0  0  0
   39.9062    9.6118   29.3417 H   0  0  0  0  0  0  0  0  0  0  0  0
   39.9802   12.0312   29.4287 H   0  0  0  0  0  0  0  0  0  0  0  0
   38.5770   12.2289   31.3131 H   0  0  0  0  0  0  0  0  0  0  0  0
   37.8044   10.7360   30.8363 H   0  0  0  0  0  0  0  0  0  0  0  0
   39.4845   10.7358   31.3164 H   0  0  0  0  0  0  0  0  0  0  0  0
   37.9762   13.2626   29.2663 H   0  0  0  0  0  0  0  0  0  0  0  0
   38.4354   12.5402   27.7430 H   0  0  0  0  0  0  0  0  0  0  0  0
   37.1815   11.8074   28.7146 H   0  0  0  0  0  0  0  0  0  0  0  0
  1  2  1  0  0  0  0
  1 15  1  0  0  0  0
  2  3  1  0  0  0  0
  2  9  1  0  0  0  0
  3  4  2  0  0  0  0
  3  8  1  0  0  0  0
  4  5  1  0  0  0  0
  5  6  2  0  0  0  0
  6  7  1  0  0  0  0
  7  8  2  0  0  0  0
  9 10  2  0  0  0  0
  9 14  1  0  0  0  0
 10 11  1  0  0  0  0
 11 12  2  0  0  0  0
 12 13  1  0  0  0  0
 13 14  2  0  0  0  0
 15 16  1  0  0  0  0
 16 17  1  0  0  0  0
 17 18  1  0  0  0  0
 17 19  1  0  0  0  0
  2 20  1  0  0  0  0
  4 21  1  0  0  0  0
  5 22  1  0  0  0  0
  6 23  1  0  0  0  0
  7 24  1  0  0  0  0
  8 25  1  0  0  0  0
 10 26  1  0  0  0  0
 11 27  1  0  0  0  0
 12 28  1  0  0  0  0
 13 29  1  0  0  0  0
 14 30  1  0  0  0  0
 15 31  1  0  0  0  0
 15 32  1  0  0  0  0
 16 33  1  0  0  0  0
 16 34  1  0  0  0  0
 17 35  1  0  0  0  0
 18 36  1  0  0  0  0
 18 37  1  0  0  0  0
 18 38  1  0  0  0  0
 19 39  1  0  0  0  0
 19 40  1  0  0  0  0
 19 41  1  0  0  0  0
M  CHG  1  17   1
M  END
> <BIOSOLVEIT.HYDE_ESTIMATED_AFFINITY_LOWER_BOUNDARY [nM]>
2479390.654325

> <BIOSOLVEIT.HYDE_ESTIMATED_AFFINITY_UPPER_BOUNDARY [nM]>
246342120.824917

> <BIOSOLVEIT.HYDE_INPUT_DATA>
AAAPc3iclVdLbh05DNz7FDqBIP5JZJkMJpvJ7LL1/W8R6uPEcWthPjzAjUJ3PbKKLLUJxngd9tJ+f+hbg/wDfczPgsb763e3tvbSGBpjwu++fz4R0X5iPjofIu+KphP3LhicF+gd3Lj93/6muH8Pi/OgWSH05F8s0RkQ24/NQp9ikeG8a/HBs2rUbuHYvn6+lvzdYTJZrLvls4tlDJEKi/WhDLsW02GbhchHhcU7Kq6OoqsIbnXDOGodgY/l/+gOcjxSpBJL/q6wb12yj+kWcuqsUGHRzgixOwqKWRVKdoQVXXh0NaNdi/ibuhyjWkvaeljIY7OgZ281jzxiz64OnwrR6DbCavPihwVzF4COR65cc9qcVkfZWw7v9mik6RUW6SPUtkceMrZHIlDRhSH9UN212EkG6Sa1eclaTM7UybDYLK5SrGWc2dXcBYqti4iVtpFzdleq5E6rue1aOKzkdGaTvm1ArqXuqVMe3L5XWEj5eMSgZ+oGYFRYrCPbyZdAPlNnmnv5eZbcRgj0nS+SZW0Wn+dCoZaYTvPeo8Hbo7nd5LWOwvRtp01kO81MJXW1BxOdxDSUcwYAWUWX7ANWTua85HnJu6Nc7mote0pydpX0ZJ0YVDya6sKa3akurdQjSPe5pG72wQY7pdjFDoth0SOep8auJUvYsys6SrObuoSexETfKeW5jVCaOstzFae6QJnZsNSN7EhLLLmNuCpIFpA1Oel0nvuj5hEzxnZ66DrfcPK5VFgy12IlQ86uxUqGTClUr6jL6a8JnZMk8KQUgJU8mhk73yQnixjrSW/ESke5RxprB1ueQjRw67LeEwu1UE4dx0lv5pPeYFRSN9/D8gjbU5eDI3teRPM98dMssF5n4YnqE81m7YYCXtELb0J8ReWG5nvYA83HfVXyAYXLvUkaz3slV/15r15704bXe/HSseUgXNFLx97giuJFh2hwRfHpUIow0xkfKD57SxFmwny8F9o8PT/ei21mwROlp+oTfWqWw0BPzSb61GyiT3VSMHg6nyg91UnB4Ol8onTRTBfvE6WLZrZ4nyhdGLzR5d5ofJlUnP/mfkD/a+3r938XOjtpMJF/fnx7ef3y5TUjscO8gPzY0HVJFoADfwGnm2t9

> <BIOSOLVEIT.HYDE_LIGAND_EFFICIENCY>
0.1184

> <BIOSOLVEIT.HYDE_LIGAND_LIPOPHILIC_EFFICIENCY>
-0.33

> <BIOSOLVEIT.INTER_CLASH range: 0=green, 1=yellow, 2=red>
0

> <BIOSOLVEIT.INTRA_CLASH range: 0=green, 1=yellow, 2=red>
0

> <BIOSOLVEIT.LOGP>
1.9371

> <BIOSOLVEIT.MOLECULAR_WEIGHT>
256.3668

> <BIOSOLVEIT.MOLECULE_CHECKSUM>
LTkuMTczMTswLjExODQxNQ==

> <BIOSOLVEIT.NUMBER_OF_H_BONDS>
2

> <BIOSOLVEIT.NUMBER_OF_UNFAVORABLE_TORSIONS>
0

> <BIOSOLVEIT.TORSION_QUALITY range: 0=green/not rotatable, 1=yellow, 2=red>
0

> <BIOSOLVEIT.TPSA>
13.67

$$$$
3100_08
ibHydescor03102615543D 1   1.00000     0.00000     0
Hydescorer 2.4.1 ibab
 41 42  0  0  0  0            999 V2000
   37.9997    8.4550   27.7869 O   0  0  0  0  0  0  0  0  0  0  0  0
   36.8234    9.2363   27.6278 C   0  0  0  0  0  0  0  0  0  0  0  0
   35.5945    8.3695   27.8078 C   0  0  0  0  0  0  0  0  0  0  0  0
   34.6632    8.6899   28.7902 C   0  0  0  0  0  0  0  0  0  0  0  0
   33.5363    7.8906   28.9527 C   0  0  0  0  0  0  0  0  0  0  0  0
   33.3466    6.7813   28.1354 C   0  0  0  0  0  0  0  0  0  0  0  0
   34.2833    6.4712   27.1572 C   0  0  0  0  0  0  0  0  0  0  0  0
   35.4145    7.2621   26.9851 C   0  0  0  0  0  0  0  0  0  0  0  0
   36.8274   10.4535   28.5386 C   0  0  0  0  0  0  0  0  0  0  0  0
   36.2518   11.6424   28.1024 C   0  0  0  0  0  0  0  0  0  0  0  0
   36.2584   12.7541   28.9387 C   0  0  0  0  0  0  0  0  0  0  0  0
   36.8364   12.6714   30.2012 C   0  0  0  0  0  0  0  0  0  0  0  0
   37.4079   11.4784   30.6264 C   0  0  0  0  0  0  0  0  0  0  0  0
   37.4084   10.3600   29.7994 C   0  0  0  0  0  0  0  0  0  0  0  0
   39.1339    9.0987   27.2210 C   0  0  0  0  0  0  0  0  0  0  0  0
   38.7594    9.6292   25.8463 C   0  0  0  0  0  0  0  0  0  0  0  0
   39.3281    8.7865   24.7951 N   0  3  0  0  0  0  0  0  0  0  0  0
   39.3499    7.3866   25.2181 C   0  0  0  0  0  0  0  0  0  0  0  0
   40.6762    9.2376   24.4515 C   0  0  0  0  0  0  0  0  0  0  0  0
   36.8142    9.5944   26.6195 H   0  0  0  0  0  0  0  0  0  0  0  0
   34.8125    9.5447   29.4161 H   0  0  0  0  0  0  0  0  0  0  0  0
   32.8153    8.1292   29.7066 H   0  0  0  0  0  0  0  0  0  0  0  0
   32.4795    6.1669   28.2599 H   0  0  0  0  0  0  0  0  0  0  0  0
   34.1332    5.6168   26.5309 H   0  0  0  0  0  0  0  0  0  0  0  0
   36.1354    7.0225   26.2314 H   0  0  0  0  0  0  0  0  0  0  0  0
   35.8074   11.7014   27.1309 H   0  0  0  0  0  0  0  0  0  0  0  0
   35.8188   13.6728   28.6108 H   0  0  0  0  0  0  0  0  0  0  0  0
   36.8410   13.5262   30.8447 H   0  0  0  0  0  0  0  0  0  0  0  0
   37.8514   11.4195   31.5984 H   0  0  0  0  0  0  0  0  0  0  0  0
   37.8487    9.4417   30.1277 H   0  0  0  0  0  0  0  0  0  0  0  0
   39.9373    8.3977   27.1296 H   0  0  0  0  0  0  0  0  0  0  0  0
   39.4381    9.9097   27.8492 H   0  0  0  0  0  0  0  0  0  0  0  0
   39.1352   10.6254   25.7398 H   0  0  0  0  0  0  0  0  0  0  0  0
   37.6936    9.6379   25.7515 H   0  0  0  0  0  0  0  0  0  0  0  0
   38.7516    8.8626   23.9815 H   0  0  0  0  0  0  0  0  0  0  0  0
   39.7683    6.7849   24.4385 H   0  0  0  0  0  0  0  0  0  0  0  0
   39.9455    7.2902   26.1017 H   0  0  0  0  0  0  0  0  0  0  0  0
   38.3517    7.0605   25.4235 H   0  0  0  0  0  0  0  0  0  0  0  0
   41.0767    8.6111   23.6822 H   0  0  0  0  0  0  0  0  0  0  0  0
   40.6361   10.2486   24.1034 H   0  0  0  0  0  0  0  0  0  0  0  0
   41.3021    9.1834   25.3177 H   0  0  0  0  0  0  0  0  0  0  0  0
  1  2  1  0  0  0  0
  1 15  1  0  0  0  0
  2  3  1  0  0  0  0
  2  9  1  0  0  0  0
  3  4  2  0  0  0  0
  3  8  1  0  0  0  0
  4  5  1  0  0  0  0
  5  6  2  0  0  0  0
  6  7  1  0  0  0  0
  7  8  2  0  0  0  0
  9 10  2  0  0  0  0
  9 14  1  0  0  0  0
 10 11  1  0  0  0  0
 11 12  2  0  0  0  0
 12 13  1  0  0  0  0
 13 14  2  0  0  0  0
 15 16  1  0  0  0  0
 16 17  1  0  0  0  0
 17 18  1  0  0  0  0
 17 19  1  0  0  0  0
  2 20  1  0  0  0  0
  4 21  1  0  0  0  0
  5 22  1  0  0  0  0
  6 23  1  0  0  0  0
  7 24  1  0  0  0  0
  8 25  1  0  0  0  0
 10 26  1  0  0  0  0
 11 27  1  0  0  0  0
 12 28  1  0  0  0  0
 13 29  1  0  0  0  0
 14 30  1  0  0  0  0
 15 31  1  0  0  0  0
 15 32  1  0  0  0  0
 16 33  1  0  0  0  0
 16 34  1  0  0  0  0
 17 35  1  0  0  0  0
 18 36  1  0  0  0  0
 18 37  1  0  0  0  0
 18 38  1  0  0  0  0
 19 39  1  0  0  0  0
 19 40  1  0  0  0  0
 19 41  1  0  0  0  0
M  CHG  1  17   1
M  END
> <BIOSOLVEIT.HYDE_ESTIMATED_AFFINITY_LOWER_BOUNDARY [nM]>
16663241985.11941

> <BIOSOLVEIT.HYDE_ESTIMATED_AFFINITY_UPPER_BOUNDARY [nM]>
1655591612105.288086

> <BIOSOLVEIT.HYDE_INPUT_DATA>
AAAPc3iclVdJjlUxDNz3KXKCyFM8iCUg2AA7tn3/W+AMQNN5C/z0pU6X8urb5bKTzwjwCv7S/jz8qWH+wQ7zWRC8Xb/Z2tpLE2xCCb/5/H0iov2kfHW+xNbzf5q4dwOeK0qMNNqP9i/F82exRBewsdg7hulkGR2Havu+Wfg/WLS7QGyWQeInFgdrH/8/ltEVh+2M1GJGRd5JYVRYLOW1qQZCsgBtllCVCktMDWhnJEN0ZzScSxnl9wrwjgXcpkKkndBLGUnWSHnHQmFHl5FiVVi0D4wVC/ZgOiwqmVupRoa+dLGMheLUCAlqNVJR27oI++wQho4OJZZUwwh3LBbh27tDBxZYBPJdg1PpsKkQSXekki7cyVm3dweabF0cveQXTcfKqhH1MJ9RUXaURCWj9MvwXSOd3Qg7FrFqH1msTk6/ZAAzN84xZtkVJV3YxqkR8uqFjMWspq51ng5buthQ334xHVxT15BPT8ewMzEBM6qvFb8ALMdmpR38sGSNosCS3mVc8yA7gDBOHzFyicW6x+8+Igfd8yXDs1os4qS70gABmwXVvcIinQVwx8IqJ6MRUsoooyeXXWmIpXOqa5BYiSWHQOwOcBqHJSwqlc7pDeh+JoPKmVJCJb8kC8nqwTbPD5U9pcyg6Bfdfpl9pAx7SplZqUbRfQzZLEp7SmmXPOAqHZDzAOWc9qx8MlIblViSBYn49BGb7YyAa7FAdwPZrhsIRxexARVdKL0b5+YRLmPPXRh5upRcx7BOROScLySbhSFvaaU+yrG2Yhl589BzTksKXXSd/57eTOsmk1kCUsl1lJqinJOE/96louQ6y+jXbEpdhoLtk0QUixm54LkFsWjsSueqUGlc11m8Ub3RTNaeUKRH9IE3IXlExxM6z7f3aL7uK5J3KD7sTdK49440wL1XH3PTRo976SFja/SQcaIPGXvDR5QedIiGjyjdFUoR5q2ELpTu3FKEPBOvvZh2vvdSm118o3yrPtFbszQD35pN9NZsorc6KRjelU+Ub3VSMLwrnyg/aKaL90b5QTNbvDfKDwyeh8uNRpMHp9L8mfsO/dbax69fFtrWj7eJfP7+6eX1w4dX6tJxLhCJNWgt2SLvhPQLxnhrSw==

> <BIOSOLVEIT.HYDE_LIGAND_EFFICIENCY>
-0.1636

> <BIOSOLVEIT.HYDE_LIGAND_LIPOPHILIC_EFFICIENCY>
-4.1575

> <BIOSOLVEIT.INTER_CLASH range: 0=green, 1=yellow, 2=red>
0

> <BIOSOLVEIT.INTRA_CLASH range: 0=green, 1=yellow, 2=red>
0

> <BIOSOLVEIT.LOGP>
1.9371

> <BIOSOLVEIT.MOLECULAR_WEIGHT>
256.3668

> <BIOSOLVEIT.MOLECULE_CHECKSUM>
MTIuNjczODstMC4xNjM2MDU=

> <BIOSOLVEIT.NUMBER_OF_H_BONDS>
2

> <BIOSOLVEIT.NUMBER_OF_UNFAVORABLE_TORSIONS>
2

> <BIOSOLVEIT.TORSION_QUALITY range: 0=green/not rotatable, 1=yellow, 2=red>
2

> <BIOSOLVEIT.TPSA>
13.67

$$$$
3100_09
ibHydescor03102615543D 1   1.00000     0.00000     0
Hydescorer 2.4.1 ibab
 41 42  0  0  0  0            999 V2000
   38.5257    8.5599   28.1354 O   0  0  0  0  0  0  0  0  0  0  0  0
   38.2684    8.6966   26.7444 C   0  0  0  0  0  0  0  0  0  0  0  0
   39.5133    8.3619   25.9495 C   0  0  0  0  0  0  0  0  0  0  0  0
   40.2264    7.2037   26.2411 C   0  0  0  0  0  0  0  0  0  0  0  0
   41.3698    6.9004   25.5090 C   0  0  0  0  0  0  0  0  0  0  0  0
   41.7915    7.7519   24.4932 C   0  0  0  0  0  0  0  0  0  0  0  0
   41.0710    8.9058   24.2105 C   0  0  0  0  0  0  0  0  0  0  0  0
   39.9265    9.2205   24.9356 C   0  0  0  0  0  0  0  0  0  0  0  0
   37.0587    7.8897   26.3141 C   0  0  0  0  0  0  0  0  0  0  0  0
   35.9209    7.8739   27.1141 C   0  0  0  0  0  0  0  0  0  0  0  0
   34.8137    7.1317   26.7160 C   0  0  0  0  0  0  0  0  0  0  0  0
   34.8492    6.4137   25.5252 C   0  0  0  0  0  0  0  0  0  0  0  0
   35.9911    6.4374   24.7339 C   0  0  0  0  0  0  0  0  0  0  0  0
   37.1049    7.1751   25.1212 C   0  0  0  0  0  0  0  0  0  0  0  0
   39.2504    9.6724   28.6436 C   0  0  0  0  0  0  0  0  0  0  0  0
   38.4595   10.9401   28.3633 C   0  0  0  0  0  0  0  0  0  0  0  0
   38.7063   11.9424   29.3993 N   0  3  0  0  0  0  0  0  0  0  0  0
   38.6514   11.3301   30.7262 C   0  0  0  0  0  0  0  0  0  0  0  0
   37.7357   13.0317   29.2982 C   0  0  0  0  0  0  0  0  0  0  0  0
   38.0435    9.7269   26.5631 H   0  0  0  0  0  0  0  0  0  0  0  0
   39.8980    6.5509   27.0227 H   0  0  0  0  0  0  0  0  0  0  0  0
   41.9248    6.0120   25.7273 H   0  0  0  0  0  0  0  0  0  0  0  0
   42.6706    7.5184   23.9297 H   0  0  0  0  0  0  0  0  0  0  0  0
   41.3994    9.5579   23.4282 H   0  0  0  0  0  0  0  0  0  0  0  0
   39.3723   10.1092   24.7170 H   0  0  0  0  0  0  0  0  0  0  0  0
   35.8975    8.4285   28.0289 H   0  0  0  0  0  0  0  0  0  0  0  0
   33.9346    7.1132   27.3259 H   0  0  0  0  0  0  0  0  0  0  0  0
   33.9974    5.8433   25.2187 H   0  0  0  0  0  0  0  0  0  0  0  0
   36.0138    5.8834   23.8187 H   0  0  0  0  0  0  0  0  0  0  0  0
   37.9838    7.1927   24.5111 H   0  0  0  0  0  0  0  0  0  0  0  0
   40.2047    9.7300   28.1630 H   0  0  0  0  0  0  0  0  0  0  0  0
   39.3885    9.5603   29.6987 H   0  0  0  0  0  0  0  0  0  0  0  0
   37.4157   10.7056   28.3429 H   0  0  0  0  0  0  0  0  0  0  0  0
   38.7548   11.3359   27.4140 H   0  0  0  0  0  0  0  0  0  0  0  0
   39.6220   12.3204   29.2625 H   0  0  0  0  0  0  0  0  0  0  0  0
   38.8339   12.0762   31.4711 H   0  0  0  0  0  0  0  0  0  0  0  0
   37.6837   10.9007   30.8811 H   0  0  0  0  0  0  0  0  0  0  0  0
   39.3965   10.5655   30.7973 H   0  0  0  0  0  0  0  0  0  0  0  0
   37.9305   13.7550   30.0623 H   0  0  0  0  0  0  0  0  0  0  0  0
   37.8194   13.4960   28.3379 H   0  0  0  0  0  0  0  0  0  0  0  0
   36.7471   12.6411   29.4206 H   0  0  0  0  0  0  0  0  0  0  0  0
  1  2  1  0  0  0  0
  1 15  1  0  0  0  0
  2  3  1  0  0  0  0
  2  9  1  0  0  0  0
  3  4  2  0  0  0  0
  3  8  1  0  0  0  0
  4  5  1  0  0  0  0
  5  6  2  0  0  0  0
  6  7  1  0  0  0  0
  7  8  2  0  0  0  0
  9 10  2  0  0  0  0
  9 14  1  0  0  0  0
 10 11  1  0  0  0  0
 11 12  2  0  0  0  0
 12 13  1  0  0  0  0
 13 14  2  0  0  0  0
 15 16  1  0  0  0  0
 16 17  1  0  0  0  0
 17 18  1  0  0  0  0
 17 19  1  0  0  0  0
  2 20  1  0  0  0  0
  4 21  1  0  0  0  0
  5 22  1  0  0  0  0
  6 23  1  0  0  0  0
  7 24  1  0  0  0  0
  8 25  1  0  0  0  0
 10 26  1  0  0  0  0
 11 27  1  0  0  0  0
 12 28  1  0  0  0  0
 13 29  1  0  0  0  0
 14 30  1  0  0  0  0
 15 31  1  0  0  0  0
 15 32  1  0  0  0  0
 16 33  1  0  0  0  0
 16 34  1  0  0  0  0
 17 35  1  0  0  0  0
 18 36  1  0  0  0  0
 18 37  1  0  0  0  0
 18 38  1  0  0  0  0
 19 39  1  0  0  0  0
 19 40  1  0  0  0  0
 19 41  1  0  0  0  0
M  CHG  1  17   1
M  END
> <BIOSOLVEIT.HYDE_ESTIMATED_AFFINITY_LOWER_BOUNDARY [nM]>
1347171203.194784

> <BIOSOLVEIT.HYDE_ESTIMATED_AFFINITY_UPPER_BOUNDARY [nM]>
133849424143.922897

> <BIOSOLVEIT.HYDE_INPUT_DATA>
AAAPc3iclVdJjhwxDLvPK/wCw1psWZhjEiSXTG65zv9/EXrpZNL2YdRooAtEFSGRFlUtVMp78Zf09yNfE+GHchmfCZWP1x9uTeklKSVlwB++/z7unn4zHh0PSc+ipgPv2Qp3XHDP1EnSr/Q/xf27WZpWGRVS7m4+WDz3KpLeFot8ioXddy3eex0sLZujyy+fr8VzpWaLRYk2S3HrEZaWUcqupQrzYqEG5lAtxUufqufWa1vqdi8cYUEfbLzULdJtsTQvFGDRkllXLZbF9aEuwemQLqWZrI7UbJxKrtnEW0yX7rI9gkBTF8V50ZAuqF6FV0dk5eG04CqkrrXmW13nwSI0uvQIi+Va65xRzr1JXRPg3UIeUZY6/U0NLGuO0JGxRmqBkrB1eVSGptMjah6spZCU5ZGYyPKIuYZqqbmq7I6sFV21aA2pi1pMdTst1R7nhXvII82tuC+W5jOvUAtCL6LLSsxRASGCK5flUevc0o/INBZf6jpm0Oqa6Zlcn2fBHFFp22kItHPXR14FWJBIyromoJY+d4BBXQmxwBmrvnTBDuDdUUV6hzpyLdvpwnO/oRbErkZYWkZgbo8qrx1Q0aUHaxEh3um9chynTnoPeWRZG+0JUPU909IopC622jqx6Eh5uiUlu2EHhJxGwPXltMm8QtahtZAuOBttbuehrkyPwMKkEvOose/EFCVZHVGJeWToo0xdJGufEwWWrhT0COeeNovxTm8amykw01CSZx7AaTy63xmqWIQFKUWVfCcDFtzOOhy7WC1CcwuN9zqd+40lcwuxIL1F+tz22PHU9rZH/tVILYzcfewAxzjuORILnV0ZM/jYAW3NkeYanEbkpLusU6el7MQ0At+nWWi+ztKJthNFwXZDR65c0AsvIL2i9YaO8/eM4vE+K3lC6XIvSP28t6bxPvF8b7v21hJf7+VLx4ZDeUUvHfdEV5QvOniiK8qnQxCB2tExUD57gwgjyZ/vpTT+Nz3fy2ns4xOVU/WBnprhMMip2UBPzQZ6qgPB6HQeqJzqQDA6nQcqF83a5D1RuWhmk/dE5cLQMaAn6nhduk2LHpr9TOnLj+8TTfMP00C+vX19eX99fcfAZxoXRKT47zIvxZy48B/QeGtE

> <BIOSOLVEIT.HYDE_LIGAND_EFFICIENCY>
-0.0831

> <BIOSOLVEIT.HYDE_LIGAND_LIPOPHILIC_EFFICIENCY>
-3.0651

> <BIOSOLVEIT.INTER_CLASH range: 0=green, 1=yellow, 2=red>
0

> <BIOSOLVEIT.INTRA_CLASH range: 0=green, 1=yellow, 2=red>
0

> <BIOSOLVEIT.LOGP>
1.9371

> <BIOSOLVEIT.MOLECULAR_WEIGHT>
256.3668

> <BIOSOLVEIT.MOLECULE_CHECKSUM>
Ni40Mzg3NTstMC4wODMxMTcy

> <BIOSOLVEIT.NUMBER_OF_H_BONDS>
2

> <BIOSOLVEIT.NUMBER_OF_UNFAVORABLE_TORSIONS>
2

> <BIOSOLVEIT.TORSION_QUALITY range: 0=green/not rotatable, 1=yellow, 2=red>
2

> <BIOSOLVEIT.TPSA>
13.67

$$$$
3100_10
ibHydescor03102615543D 1   1.00000     0.00000     0
Hydescorer 2.4.1 ibab
 41 42  0  0  0  0            999 V2000
   38.1627    8.3356   27.8391 O   0  0  0  0  0  0  0  0  0  0  0  0
   37.7103    8.3189   26.4921 C   0  0  0  0  0  0  0  0  0  0  0  0
   38.5556    7.3677   25.6707 C   0  0  0  0  0  0  0  0  0  0  0  0
   37.9480    6.5430   24.7297 C   0  0  0  0  0  0  0  0  0  0  0  0
   38.7280    5.6702   23.9781 C   0  0  0  0  0  0  0  0  0  0  0  0
   40.1050    5.6276   24.1693 C   0  0  0  0  0  0  0  0  0  0  0  0
   40.7012    6.4564   25.1118 C   0  0  0  0  0  0  0  0  0  0  0  0
   39.9321    7.3331   25.8702 C   0  0  0  0  0  0  0  0  0  0  0  0
   36.2265    8.0190   26.4005 C   0  0  0  0  0  0  0  0  0  0  0  0
   35.4881    8.5147   25.3310 C   0  0  0  0  0  0  0  0  0  0  0  0
   34.1272    8.2379   25.2513 C   0  0  0  0  0  0  0  0  0  0  0  0
   33.5148    7.4695   26.2358 C   0  0  0  0  0  0  0  0  0  0  0  0
   34.2626    6.9793   27.2993 C   0  0  0  0  0  0  0  0  0  0  0  0
   35.6240    7.2496   27.3908 C   0  0  0  0  0  0  0  0  0  0  0  0
   37.9477    9.6031   28.4459 C   0  0  0  0  0  0  0  0  0  0  0  0
   39.2964   10.2525   28.7119 C   0  0  0  0  0  0  0  0  0  0  0  0
   39.1275   11.5253   29.4121 N   0  3  0  0  0  0  0  0  0  0  0  0
   38.7539   11.2955   30.8073 C   0  0  0  0  0  0  0  0  0  0  0  0
   38.1206   12.3477   28.7422 C   0  0  0  0  0  0  0  0  0  0  0  0
   37.8607    9.3009   26.0947 H   0  0  0  0  0  0  0  0  0  0  0  0
   36.8885    6.5797   24.5851 H   0  0  0  0  0  0  0  0  0  0  0  0
   38.2686    5.0316   23.2528 H   0  0  0  0  0  0  0  0  0  0  0  0
   40.7051    4.9569   23.5907 H   0  0  0  0  0  0  0  0  0  0  0  0
   41.7608    6.4200   25.2554 H   0  0  0  0  0  0  0  0  0  0  0  0
   40.3922    7.9710   26.5956 H   0  0  0  0  0  0  0  0  0  0  0  0
   35.9634    9.1044   24.5751 H   0  0  0  0  0  0  0  0  0  0  0  0
   33.5514    8.6160   24.4326 H   0  0  0  0  0  0  0  0  0  0  0  0
   32.4681    7.2560   26.1742 H   0  0  0  0  0  0  0  0  0  0  0  0
   33.7872    6.3887   28.0544 H   0  0  0  0  0  0  0  0  0  0  0  0
   36.1990    6.8718   28.2102 H   0  0  0  0  0  0  0  0  0  0  0  0
   37.4214    9.4756   29.3688 H   0  0  0  0  0  0  0  0  0  0  0  0
   37.3728   10.2231   27.7901 H   0  0  0  0  0  0  0  0  0  0  0  0
   39.7921   10.4273   27.7799 H   0  0  0  0  0  0  0  0  0  0  0  0
   39.8897    9.5964   29.3139 H   0  0  0  0  0  0  0  0  0  0  0  0
   39.9994   12.0148   29.3941 H   0  0  0  0  0  0  0  0  0  0  0  0
   38.6346   12.2356   31.3041 H   0  0  0  0  0  0  0  0  0  0  0  0
   37.8327   10.7527   30.8451 H   0  0  0  0  0  0  0  0  0  0  0  0
   39.5212   10.7300   31.2934 H   0  0  0  0  0  0  0  0  0  0  0  0
   38.0099   13.2737   29.2668 H   0  0  0  0  0  0  0  0  0  0  0  0
   38.4305   12.5422   27.7366 H   0  0  0  0  0  0  0  0  0  0  0  0
   37.1849   11.8288   28.7330 H   0  0  0  0  0  0  0  0  0  0  0  0
  1  2  1  0  0  0  0
  1 15  1  0  0  0  0
  2  3  1  0  0  0  0
  2  9  1  0  0  0  0
  3  4  2  0  0  0  0
  3  8  1  0  0  0  0
  4  5  1  0  0  0  0
  5  6  2  0  0  0  0
  6  7  1  0  0  0  0
  7  8  2  0  0  0  0
  9 10  2  0  0  0  0
  9 14  1  0  0  0  0
 10 11  1  0  0  0  0
 11 12  2  0  0  0  0
 12 13  1  0  0  0  0
 13 14  2  0  0  0  0
 15 16  1  0  0  0  0
 16 17  1  0  0  0  0
 17 18  1  0  0  0  0
 17 19  1  0  0  0  0
  2 20  1  0  0  0  0
  4 21  1  0  0  0  0
  5 22  1  0  0  0  0
  6 23  1  0  0  0  0
  7 24  1  0  0  0  0
  8 25  1  0  0  0  0
 10 26  1  0  0  0  0
 11 27  1  0  0  0  0
 12 28  1  0  0  0  0
 13 29  1  0  0  0  0
 14 30  1  0  0  0  0
 15 31  1  0  0  0  0
 15 32  1  0  0  0  0
 16 33  1  0  0  0  0
 16 34  1  0  0  0  0
 17 35  1  0  0  0  0
 18 36  1  0  0  0  0
 18 37  1  0  0  0  0
 18 38  1  0  0  0  0
 19 39  1  0  0  0  0
 19 40  1  0  0  0  0
 19 41  1  0  0  0  0
M  CHG  1  17   1
M  END
> <BIOSOLVEIT.HYDE_ESTIMATED_AFFINITY_LOWER_BOUNDARY [nM]>
3775400.060134

> <BIOSOLVEIT.HYDE_ESTIMATED_AFFINITY_UPPER_BOUNDARY [nM]>
375108317.906021

> <BIOSOLVEIT.HYDE_INPUT_DATA>
AAAPc3iclVZLbiU3DNz7FDqBIH4lYpYzQWaTyS5b3/8WKUn9Jo6lhdl4gBsFdZksFkkJtfZO7a38fuRHIfyh2uazoPbx/cPRUt6KUlEG/OH33xMR5R/Gp/MjGbWb9YmP6qyCF+411Kz8Xf5Pcf89LBFj/hei6tp1YghQm5Rfm0W+xCJOTyyqY76xVwuy8v3rsURl5cXSq5LEZLEazJFh8TqG+I6FhGjHop0lwzIzElmq1xF9qTtz45bLSJxnLNSqyLDJElUjUrqgvj3GjAV5hPDWpalxThfunV+68KMuc9MEi7bqzX3XSGJFBXVpKpSKhUyeSg8l3t51bj2nS/eVB7yLVph8QlUHpWqECGizcCUP3TUSpJmrtAbPb4tV0+1drSqaikXhdkT/0mXsGhFZRheFBm344xe1p9LWI+UXrTCd7ljMVlSokTXO6AK/DNuuQwQ7N+jSG/oyFQsNilcsTbfr2HrGu/CLcR+7p6WP2CxtoBt/Zvwio78mA8czGUY3ybBgvmjYngze+qsDlFKxzDyW1xCL85p1mN4IKhOLztnk9Eyp2LpEbZbVBc1o23VG9lR6uTjBgumt8WwSsTVpwCKqnskI61aYnllH9OwjlC1VI0dG3X93o+5K28DuTtXIjceeUkyrGzGlwnuKBbsnViyYUsZsm2UYrgSpGoU770oPH2OzIBTO6RKhfWekuHBsv1jLeRed7G11gFRib5ulY9XldGnkfevCvvyHGglpigVu9768C8cKrZ4W3K9Gyi+Y9+ry8gs/HUDmmQ5QrhjZ7Znez73Oah9wcSoWmOTZsML+eBdTL1PpuUnG3mpzG2xdwCwtVWnUV0a8YrHXnaF7skbdVo1mpfuQ7Zcx0OdfZqF1naUT9RNFm/QbOm8rF/TCC0ivqN3Q6ZfPKD4fK5JPKF3OgjTOs1bmVvh81q+5eeHrWb5k3NEgV/SS8Sh0RfmiQxS6onxWCCKQHxkD5TM3iDC3wOezVOZk/nyWy7wPnqicqk/01AxmkFOziZ6aTfRUB4LRWXmgcqoDweisPFC5aOaL90TlollfvCcqF4ZR5HI2cLm4dYsemv1Vyveffy60rAU1kT9+/Xh7//btHSOx0nzBLhe3/SoYSNz4X4Udaz8=

> <BIOSOLVEIT.HYDE_LIGAND_EFFICIENCY>
0.105

> <BIOSOLVEIT.HYDE_LIGAND_LIPOPHILIC_EFFICIENCY>
-0.5127

> <BIOSOLVEIT.INTER_CLASH range: 0=green, 1=yellow, 2=red>
0

> <BIOSOLVEIT.INTRA_CLASH range: 0=green, 1=yellow, 2=red>
0

> <BIOSOLVEIT.LOGP>
1.9371

> <BIOSOLVEIT.MOLECULAR_WEIGHT>
256.3668

> <BIOSOLVEIT.MOLECULE_CHECKSUM>
LTguMTMwNzI7MC4xMDQ5NTk=

> <BIOSOLVEIT.NUMBER_OF_H_BONDS>
2

> <BIOSOLVEIT.NUMBER_OF_UNFAVORABLE_TORSIONS>
0

> <BIOSOLVEIT.TORSION_QUALITY range: 0=green/not rotatable, 1=yellow, 2=red>
0

> <BIOSOLVEIT.TPSA>
13.67

$$$$
